
//#option verbose
//#option debug
#set savefile=test_billing.json

clock
{
	timezone "US/CA/San Francisco";
	starttime "2020-01-01 00:00:00 PST";
	stoptime "2021-01-01 00:00:00 PST";
}

module powerflow;

object triplex_meter
{
	name "meter1";
	phases AS;
	nominal_voltage 120 V;
}

module residential;

object house
{
	parent "meter1";
}

#include "pgande_res_200301.glm"

object billing 
{
	meter "meter1";
	tariff "E-1";
	bill_day 30;
}