#print "model loaded"
module powerflow;
module climate;

clock {
	timezone US/CA/Los Angeles;
	starttime '2000-01-01 00:00:00';
	stoptime '2001-01-01 00:00:00';
}

#weather get CA-Chino_Airport.tmy3
object climate 
{
	name weather;
	tmyfile "CA-Chino_Airport.tmy3";
}

object node { 
      name main;
      phases "ABCN";
     // bustype SWING;
      nominal_voltage 2401.7771;
 }