////////////////////////////////////////////////////////
// BEGIN
////////////////////////////////////////////////////////
// filename... model_save.glm
// workdir.... /Volumes/DATA/GitHub/gridlabd-python/autotest
// command.... /usr/local/bin/gridlabd.bin -D glm_save_options=MINIMAL model.glm -o model_save.glm
// created.... Fri Jul 26 08:07:09 2019
// user....... dchassin
// host....... (null)
// modules.... 5
// classes.... 89
// objects.... 1005
// options.... MINIMAL

////////////////////////////////////////////////////////

// CLOCK
clock {
	timezone "EST5EDT";
	starttime "2018-01-30 00:00:00 EST";
	stoptime "2018-01-30 00:01:00 EST";
}

////////////////////////////////////////////////////////
// modules
module residential {
	message_flags "DEBUG|VERBOSE";
	default_line_voltage "+240+0d V";
	default_line_current "+0+0j A";
	default_outdoor_temperature "+74 degF";
	default_humidity "+75 %";
	default_solar "+0 Btu/sf";
	default_etp_iterations "100";
	ANSI_voltage_check "TRUE";
	enable_subsecond_models "FALSE";
	deltamode_timestep "+1e+07 ns";
	all_house_delta "FALSE";
	implicit_enduses "REFRIGERATOR|PLUGS|LIGHTS";
	implicit_enduse_source "ELCAP1990";
	house_low_temperature_warning "+55 degF";
	house_high_temperature_warning "+95 degF";
	thermostat_control_warning "+4.94066e-324";
	system_dwell_time "+1 s";
	aux_cutin_temperature "+10 degF";
}
module climate {
	message_flags "DEBUG|VERBOSE";
}
module powerflow {
	message_flags "DEBUG|VERBOSE";
	show_matrix_values "FALSE";
	primary_voltage_ratio "+60";
	nominal_frequency "+60";
	require_voltage_control "FALSE";
	geographic_degree "+0";
	fault_impedance "+1e-06+0j";
	ground_impedance "+1e-06+0j";
	warning_underfrequency "+55";
	warning_overfrequency "+65";
	warning_undervoltage "+0.8";
	warning_overvoltage "+1.2";
	warning_voltageangle "+2";
	maximum_voltage_error "+1e-06";
	solver_method "NR";
	NR_matrix_file "";
	NR_matrix_output_interval "NEVER";
	NR_matrix_output_references "FALSE";
	line_capacitance "TRUE";
	line_limits "TRUE";
	lu_solver "";
	NR_iteration_limit "500";
	NR_deltamode_iteration_limit "10";
	NR_superLU_procs "1";
	default_maximum_voltage_error "+1e-06";
	default_maximum_power_error "+0.0001";
	NR_admit_change "FALSE";
	enable_subsecond_models "FALSE";
	all_powerflow_delta "FALSE";
	deltamode_timestep "+1e+07 ns";
	current_frequency "+60 Hz";
	master_frequency_update "FALSE";
	enable_frequency_dependence "FALSE";
	default_resistance "+0.0001";
	enable_inrush "FALSE";
	low_voltage_impedance_level "+0.7";
	enable_mesh_fault_current "FALSE";
	convergence_error_handling "IGNORE";
	solver_profile_enable "FALSE";
	solver_profile_filename "solver_nr_profile.csv";
	solver_profile_headers_included "TRUE";
	solver_headers "timestamp,duration[microsec],iteration,bus_count,branch_count,error";
	market_price_name "current_market.clearing_price";
}
module generators {
	message_flags "DEBUG|VERBOSE";
	enable_subsecond_models "FALSE";
	deltamode_timestep "+1e+07 ns";
}
module tape {
	gnuplot_path "/usr/bin/gnuplot";
	flush_interval "0";
	csv_data_only "0";
	csv_keep_clean "0";
	delta_mode_needed "NEVER";
}

////////////////////////////////////////////////////////
// classes
#warning transform to waterheater_270.water_demand was not saved
#warning transform to waterheater_269.water_demand was not saved
#warning transform to waterheater_268.water_demand was not saved
#warning transform to waterheater_267.water_demand was not saved
#warning transform to waterheater_266.water_demand was not saved
#warning transform to waterheater_265.water_demand was not saved
#warning transform to waterheater_264.water_demand was not saved
#warning transform to waterheater_263.water_demand was not saved
#warning transform to waterheater_262.water_demand was not saved
#warning transform to waterheater_261.water_demand was not saved
#warning transform to waterheater_260.water_demand was not saved
#warning transform to waterheater_259.water_demand was not saved
#warning transform to waterheater_258.water_demand was not saved
#warning transform to waterheater_257.water_demand was not saved
#warning transform to waterheater_256.water_demand was not saved
#warning transform to waterheater_255.water_demand was not saved
#warning transform to waterheater_254.water_demand was not saved
#warning transform to waterheater_253.water_demand was not saved
#warning transform to waterheater_252.water_demand was not saved
#warning transform to waterheater_251.water_demand was not saved
#warning transform to waterheater_250.water_demand was not saved
#warning transform to waterheater_249.water_demand was not saved
#warning transform to waterheater_248.water_demand was not saved
#warning transform to waterheater_247.water_demand was not saved
#warning transform to waterheater_246.water_demand was not saved
#warning transform to waterheater_245.water_demand was not saved
#warning transform to waterheater_244.water_demand was not saved
#warning transform to waterheater_243.water_demand was not saved
#warning transform to waterheater_242.water_demand was not saved
#warning transform to waterheater_241.water_demand was not saved
#warning transform to waterheater_240.water_demand was not saved
#warning transform to waterheater_239.water_demand was not saved
#warning transform to waterheater_238.water_demand was not saved
#warning transform to waterheater_237.water_demand was not saved
#warning transform to waterheater_236.water_demand was not saved
#warning transform to waterheater_235.water_demand was not saved
#warning transform to waterheater_234.water_demand was not saved
#warning transform to waterheater_233.water_demand was not saved
#warning transform to waterheater_232.water_demand was not saved
#warning transform to waterheater_231.water_demand was not saved
#warning transform to waterheater_230.water_demand was not saved
#warning transform to waterheater_229.water_demand was not saved
#warning transform to waterheater_228.water_demand was not saved
#warning transform to waterheater_227.water_demand was not saved
#warning transform to waterheater_226.water_demand was not saved
#warning transform to waterheater_225.water_demand was not saved
#warning transform to waterheater_224.water_demand was not saved
#warning transform to waterheater_223.water_demand was not saved
#warning transform to waterheater_222.water_demand was not saved
#warning transform to waterheater_221.water_demand was not saved
#warning transform to waterheater_220.water_demand was not saved
#warning transform to waterheater_219.water_demand was not saved
#warning transform to waterheater_218.water_demand was not saved
#warning transform to waterheater_217.water_demand was not saved
#warning transform to waterheater_216.water_demand was not saved
#warning transform to waterheater_215.water_demand was not saved
#warning transform to waterheater_214.water_demand was not saved
#warning transform to waterheater_213.water_demand was not saved
#warning transform to waterheater_212.water_demand was not saved
#warning transform to waterheater_211.water_demand was not saved
#warning transform to waterheater_210.water_demand was not saved
#warning transform to waterheater_209.water_demand was not saved
#warning transform to waterheater_208.water_demand was not saved
#warning transform to waterheater_207.water_demand was not saved
#warning transform to waterheater_206.water_demand was not saved
#warning transform to waterheater_205.water_demand was not saved
#warning transform to waterheater_204.water_demand was not saved
#warning transform to waterheater_203.water_demand was not saved
#warning transform to waterheater_202.water_demand was not saved
#warning transform to waterheater_201.water_demand was not saved
#warning transform to waterheater_200.water_demand was not saved
#warning transform to waterheater_199.water_demand was not saved
#warning transform to waterheater_198.water_demand was not saved
#warning transform to waterheater_197.water_demand was not saved
#warning transform to waterheater_196.water_demand was not saved
#warning transform to waterheater_195.water_demand was not saved
#warning transform to waterheater_194.water_demand was not saved
#warning transform to waterheater_193.water_demand was not saved
#warning transform to waterheater_192.water_demand was not saved
#warning transform to waterheater_191.water_demand was not saved
#warning transform to waterheater_190.water_demand was not saved
#warning transform to waterheater_189.water_demand was not saved
#warning transform to waterheater_188.water_demand was not saved
#warning transform to waterheater_187.water_demand was not saved
#warning transform to waterheater_186.water_demand was not saved
#warning transform to waterheater_185.water_demand was not saved
#warning transform to waterheater_184.water_demand was not saved
#warning transform to waterheater_183.water_demand was not saved
#warning transform to waterheater_182.water_demand was not saved
#warning transform to waterheater_181.water_demand was not saved
#warning transform to waterheater_180.water_demand was not saved
#warning transform to waterheater_179.water_demand was not saved
#warning transform to waterheater_178.water_demand was not saved
#warning transform to waterheater_177.water_demand was not saved
#warning transform to waterheater_176.water_demand was not saved
#warning transform to waterheater_175.water_demand was not saved
#warning transform to waterheater_174.water_demand was not saved
#warning transform to waterheater_173.water_demand was not saved
#warning transform to waterheater_172.water_demand was not saved
#warning transform to waterheater_171.water_demand was not saved
#warning transform to waterheater_170.water_demand was not saved
#warning transform to waterheater_169.water_demand was not saved
#warning transform to waterheater_168.water_demand was not saved
#warning transform to waterheater_167.water_demand was not saved
#warning transform to waterheater_166.water_demand was not saved
#warning transform to waterheater_165.water_demand was not saved
#warning transform to waterheater_164.water_demand was not saved
#warning transform to waterheater_163.water_demand was not saved
#warning transform to waterheater_162.water_demand was not saved
#warning transform to waterheater_161.water_demand was not saved
#warning transform to waterheater_160.water_demand was not saved
#warning transform to waterheater_159.water_demand was not saved
#warning transform to waterheater_158.water_demand was not saved
#warning transform to waterheater_157.water_demand was not saved
#warning transform to waterheater_156.water_demand was not saved
#warning transform to waterheater_155.water_demand was not saved
#warning transform to waterheater_154.water_demand was not saved
#warning transform to waterheater_153.water_demand was not saved
#warning transform to waterheater_152.water_demand was not saved
#warning transform to waterheater_151.water_demand was not saved
#warning transform to waterheater_150.water_demand was not saved
#warning transform to waterheater_149.water_demand was not saved
#warning transform to waterheater_148.water_demand was not saved
#warning transform to waterheater_147.water_demand was not saved
#warning transform to waterheater_146.water_demand was not saved
#warning transform to waterheater_145.water_demand was not saved
#warning transform to waterheater_144.water_demand was not saved
#warning transform to waterheater_143.water_demand was not saved
#warning transform to waterheater_142.water_demand was not saved
#warning transform to waterheater_141.water_demand was not saved
#warning transform to waterheater_140.water_demand was not saved
#warning transform to waterheater_139.water_demand was not saved
#warning transform to waterheater_138.water_demand was not saved
#warning transform to waterheater_137.water_demand was not saved
#warning transform to waterheater_136.water_demand was not saved
#warning transform to waterheater_135.water_demand was not saved
#warning transform to waterheater_134.water_demand was not saved
#warning transform to waterheater_133.water_demand was not saved
#warning transform to waterheater_132.water_demand was not saved
#warning transform to waterheater_131.water_demand was not saved
#warning transform to waterheater_130.water_demand was not saved
#warning transform to waterheater_129.water_demand was not saved
#warning transform to waterheater_128.water_demand was not saved
#warning transform to waterheater_127.water_demand was not saved
#warning transform to waterheater_126.water_demand was not saved
#warning transform to waterheater_125.water_demand was not saved
#warning transform to waterheater_124.water_demand was not saved
#warning transform to waterheater_123.water_demand was not saved
#warning transform to waterheater_122.water_demand was not saved
#warning transform to waterheater_121.water_demand was not saved
#warning transform to waterheater_120.water_demand was not saved
#warning transform to waterheater_119.water_demand was not saved
#warning transform to waterheater_118.water_demand was not saved
#warning transform to waterheater_117.water_demand was not saved
#warning transform to waterheater_116.water_demand was not saved
#warning transform to waterheater_115.water_demand was not saved
#warning transform to waterheater_114.water_demand was not saved
#warning transform to waterheater_113.water_demand was not saved
#warning transform to waterheater_112.water_demand was not saved
#warning transform to waterheater_111.water_demand was not saved
#warning transform to waterheater_110.water_demand was not saved
#warning transform to waterheater_109.water_demand was not saved
#warning transform to waterheater_108.water_demand was not saved
#warning transform to waterheater_107.water_demand was not saved
#warning transform to waterheater_106.water_demand was not saved
#warning transform to waterheater_105.water_demand was not saved
#warning transform to waterheater_104.water_demand was not saved
#warning transform to waterheater_103.water_demand was not saved
#warning transform to waterheater_102.water_demand was not saved
#warning transform to waterheater_101.water_demand was not saved
#warning transform to waterheater_100.water_demand was not saved
#warning transform to waterheater_99.water_demand was not saved
#warning transform to waterheater_98.water_demand was not saved
#warning transform to waterheater_97.water_demand was not saved
#warning transform to waterheater_96.water_demand was not saved
#warning transform to waterheater_95.water_demand was not saved
#warning transform to waterheater_94.water_demand was not saved
#warning transform to waterheater_93.water_demand was not saved
#warning transform to waterheater_92.water_demand was not saved
#warning transform to waterheater_91.water_demand was not saved
#warning transform to waterheater_90.water_demand was not saved
#warning transform to waterheater_89.water_demand was not saved
#warning transform to waterheater_88.water_demand was not saved
#warning transform to waterheater_87.water_demand was not saved
#warning transform to waterheater_86.water_demand was not saved
#warning transform to waterheater_85.water_demand was not saved
#warning transform to waterheater_84.water_demand was not saved
#warning transform to waterheater_83.water_demand was not saved
#warning transform to waterheater_82.water_demand was not saved
#warning transform to waterheater_81.water_demand was not saved
#warning transform to waterheater_80.water_demand was not saved
#warning transform to waterheater_79.water_demand was not saved
#warning transform to waterheater_78.water_demand was not saved
#warning transform to waterheater_77.water_demand was not saved
#warning transform to waterheater_76.water_demand was not saved
#warning transform to waterheater_75.water_demand was not saved
#warning transform to waterheater_74.water_demand was not saved
#warning transform to waterheater_73.water_demand was not saved
#warning transform to waterheater_72.water_demand was not saved
#warning transform to waterheater_71.water_demand was not saved
#warning transform to waterheater_70.water_demand was not saved
#warning transform to waterheater_69.water_demand was not saved
#warning transform to waterheater_68.water_demand was not saved
#warning transform to waterheater_67.water_demand was not saved
#warning transform to waterheater_66.water_demand was not saved
#warning transform to waterheater_65.water_demand was not saved
#warning transform to waterheater_64.water_demand was not saved
#warning transform to waterheater_63.water_demand was not saved
#warning transform to waterheater_62.water_demand was not saved
#warning transform to waterheater_61.water_demand was not saved
#warning transform to waterheater_60.water_demand was not saved
#warning transform to waterheater_59.water_demand was not saved
#warning transform to waterheater_58.water_demand was not saved
#warning transform to waterheater_57.water_demand was not saved
#warning transform to waterheater_56.water_demand was not saved
#warning transform to waterheater_55.water_demand was not saved
#warning transform to waterheater_54.water_demand was not saved
#warning transform to waterheater_53.water_demand was not saved
#warning transform to waterheater_52.water_demand was not saved
#warning transform to waterheater_51.water_demand was not saved
#warning transform to waterheater_50.water_demand was not saved
#warning transform to waterheater_49.water_demand was not saved
#warning transform to waterheater_48.water_demand was not saved
#warning transform to waterheater_47.water_demand was not saved
#warning transform to waterheater_46.water_demand was not saved
#warning transform to waterheater_45.water_demand was not saved
#warning transform to waterheater_44.water_demand was not saved
#warning transform to waterheater_43.water_demand was not saved
#warning transform to waterheater_42.water_demand was not saved
#warning transform to waterheater_41.water_demand was not saved
#warning transform to waterheater_40.water_demand was not saved
#warning transform to waterheater_39.water_demand was not saved
#warning transform to waterheater_38.water_demand was not saved
#warning transform to waterheater_37.water_demand was not saved
#warning transform to waterheater_36.water_demand was not saved
#warning transform to waterheater_35.water_demand was not saved
#warning transform to waterheater_34.water_demand was not saved
#warning transform to waterheater_33.water_demand was not saved
#warning transform to waterheater_32.water_demand was not saved
#warning transform to waterheater_31.water_demand was not saved
#warning transform to waterheater_30.water_demand was not saved
#warning transform to waterheater_29.water_demand was not saved
#warning transform to waterheater_28.water_demand was not saved
#warning transform to waterheater_27.water_demand was not saved
#warning transform to waterheater_26.water_demand was not saved
#warning transform to waterheater_25.water_demand was not saved
#warning transform to waterheater_24.water_demand was not saved
#warning transform to waterheater_23.water_demand was not saved
#warning transform to waterheater_22.water_demand was not saved
#warning transform to waterheater_21.water_demand was not saved
#warning transform to waterheater_20.water_demand was not saved
#warning transform to waterheater_19.water_demand was not saved
#warning transform to waterheater_18.water_demand was not saved
#warning transform to waterheater_17.water_demand was not saved
#warning transform to waterheater_16.water_demand was not saved
#warning transform to waterheater_15.water_demand was not saved
#warning transform to waterheater_14.water_demand was not saved
#warning transform to waterheater_13.water_demand was not saved
#warning transform to waterheater_12.water_demand was not saved
#warning transform to waterheater_11.water_demand was not saved
#warning transform to waterheater_10.water_demand was not saved
#warning transform to waterheater_9.water_demand was not saved
#warning transform to waterheater_8.water_demand was not saved
#warning transform to waterheater_7.water_demand was not saved
#warning transform to waterheater_6.water_demand was not saved
#warning transform to waterheater_5.water_demand was not saved
#warning transform to waterheater_4.water_demand was not saved
#warning transform to waterheater_3.water_demand was not saved
#warning transform to waterheater_2.water_demand was not saved
#warning transform to waterheater_1.water_demand was not saved

////////////////////////////////////////////////////////
// objects
object climate.climate {
	name "weather";
	latitude "44N28:0.00";
	longitude "73W9:0.00";
	solar_elevation "-1.11362 rad";
	solar_azimuth "+1.05206 rad";
	solar_zenith "+2.68441 rad";
	tmyfile "data/VT-Burlington_International_Ap.tmy3";
	temperature "+10.042 degF";
	humidity "+0.92 pu";
	extraterrestrial_direct_normal "+0 W/sf";
	pressure "+1007 mbar";
	wind_speed "+4.6 m/s";
	wind_dir "+40 rad";
	record.low "-18.038 degF";
	record.high "+98.962 degF";
	record.solar "+93.7958 W/sf";
	rainfall "+0.19685 in/h";
	interpolate "QUADRATIC";
	opq_sky_cov "+0.3 pu";
}
object powerflow.overhead_line_conductor {
	name "olc_default";
	geometric_mean_radius "+0.0244 ft";
	resistance "+0.306 Ohm/mile";
	diameter "+0.721 in";
	rating.summer.continuous "+1000 A";
	rating.summer.emergency "+2000 A";
	rating.winter.continuous "+1000 A";
	rating.winter.emergency "+2000 A";
}
object powerflow.line_spacing {
	name "ls_default";
	distance_AB "+0.5 ft";
	distance_BC "+0.5 ft";
	distance_AC "+1 ft";
}
object powerflow.line_configuration {
	name "lc_default_A";
	conductor_A "olc_default";
	conductor_N "olc_default";
	spacing "ls_default";
	rating.summer.continuous "+1000 A";
	rating.summer.emergency "+2000 A";
	rating.winter.continuous "+1000 A";
	rating.winter.emergency "+2000 A";
}
object powerflow.line_configuration {
	name "lc_default_B";
	conductor_B "olc_default";
	conductor_N "olc_default";
	spacing "ls_default";
	rating.summer.continuous "+1000 A";
	rating.summer.emergency "+2000 A";
	rating.winter.continuous "+1000 A";
	rating.winter.emergency "+2000 A";
}
object powerflow.line_configuration {
	name "lc_default_C";
	conductor_C "olc_default";
	conductor_N "olc_default";
	spacing "ls_default";
	rating.summer.continuous "+1000 A";
	rating.summer.emergency "+2000 A";
	rating.winter.continuous "+1000 A";
	rating.winter.emergency "+2000 A";
}
object powerflow.line_configuration {
	name "lc_default_ABC";
	conductor_A "olc_default";
	conductor_B "olc_default";
	conductor_C "olc_default";
	conductor_N "olc_default";
	spacing "ls_default";
	rating.summer.continuous "+1000 A";
	rating.summer.emergency "+2000 A";
	rating.winter.continuous "+1000 A";
	rating.winter.emergency "+2000 A";
}
object powerflow.overhead_line {
	name "line_node101_node102";
	// class.parent = powerflow.line
	configuration "lc_default_ABC";
	length "+175 ft";
	// class.parent = powerflow.link
	status "CLOSED";
	from "node_101";
	to "node_102i";
	power_in "+141718+7.75729d VA";
	power_out "+141704+7.75142d VA";
	power_out_real "+140409 W";
	power_losses "+21.1017+50.5473d VA";
	power_in_A "+38860.9+6.37481d VA";
	power_in_B "+55856.6+7.66399d VA";
	power_in_C "+47022.9+9.01062d VA";
	power_out_A "+38856.3+6.37454d VA";
	power_out_B "+55847.2+7.65479d VA";
	power_out_C "+47022.7+9.00394d VA";
	power_losses_A "+4.63754+8.68304d VA";
	power_losses_B "+13.039+51.0766d VA";
	power_losses_C "+5.4859+83.3812d VA";
	current_out_A "+13.012-9.63381j A";
	current_out_B "-21.563-8.77374j A";
	current_out_C "+3.1234+19.3429j A";
	current_in_A "+13.012-9.63381j A";
	current_in_B "-21.563-8.77374j A";
	current_in_C "+3.1234+19.3429j A";
	flow_direction "CF|BF|AF";
	continuous_rating "+1000 A";
	emergency_rating "+2000 A";
	inrush_convergence_value "+0.0001 V";
	// class.parent = powerflow.powerflow_object
	phases "ABCN";
	nominal_voltage "+2401.78 V";
}
object powerflow.node {
	name "node_102i";
	busflags "HASSOURCE";
	maximum_voltage_error "+0.00240178 V";
	voltage_A "+2399.99-30.1409d V";
	voltage_B "+2398.97-150.204d V";
	voltage_C "+2399.92+89.8313d V";
	voltage_AB "+4157.35-0.179632d V";
	voltage_BC "+4155.22-120.18d V";
	voltage_CA "+4156.26+119.846d V";
	frequency_measure_type "NONE";
	sfm_Tf "+0.01 s";
	pll_Kp "+10 pu";
	pll_Ki "+100 pu";
	measured_frequency_A "+60 Hz";
	measured_frequency_B "+60 Hz";
	measured_frequency_C "+60 Hz";
	measured_frequency "+60 Hz";
	service_status "IN_SERVICE";
	service_status_double "-1";
	previous_uptime "-1 min";
	current_uptime "+0.8 min";
	GFA_freq_low_trip "+59.5 Hz";
	GFA_freq_high_trip "+60.5 Hz";
	GFA_volt_low_trip "+0.8 pu";
	GFA_volt_high_trip "+1.2 pu";
	GFA_reconnect_time "+300 s";
	GFA_freq_disconnect_time "+0.2 s";
	GFA_volt_disconnect_time "+0.2 s";
	GFA_status "TRUE";
	// class.parent = powerflow.powerflow_object
	phases "ABCN";
	nominal_voltage "+2401.78 V";
}
object powerflow.overhead_line {
	name "line_node102_node103";
	// class.parent = powerflow.line
	configuration "lc_default_ABC";
	length "+175 ft";
	// class.parent = powerflow.link
	status "CLOSED";
	from "node_102";
	to "node_103i";
	power_in "+79734.3+6.94627d VA";
	power_out "+79729.6+6.94234d VA";
	power_out_real "+79145.1 W";
	power_losses "+8.29911+46.3022d VA";
	power_in_A "+19427.9+6.37365d VA";
	power_in_B "+32011.3+9.43201d VA";
	power_in_C "+28351.4+4.5322d VA";
	power_out_A "+19426.9+6.37581d VA";
	power_out_B "+32007+9.42639d VA";
	power_out_C "+28352+4.52641d VA";
	power_losses_A "+1.23618-29.8895d VA";
	power_losses_B "+5.37174+45.1804d VA";
	power_losses_C "+2.93926+72.6745d VA";
	current_out_A "+6.50599-4.81673j A";
	current_out_B "-12.5098-4.64334j A";
	current_out_C "+0.968165+11.7737j A";
	current_in_A "+6.50599-4.81673j A";
	current_in_B "-12.5098-4.64334j A";
	current_in_C "+0.968165+11.7737j A";
	flow_direction "CR|BF|AF";
	continuous_rating "+1000 A";
	emergency_rating "+2000 A";
	inrush_convergence_value "+0.0001 V";
	// class.parent = powerflow.powerflow_object
	phases "ABCN";
	nominal_voltage "+2401.78 V";
}
object powerflow.node {
	name "node_103i";
	busflags "HASSOURCE";
	maximum_voltage_error "+0.00240178 V";
	voltage_A "+2399.86-30.1387d V";
	voltage_B "+2398.64-150.21d V";
	voltage_C "+2399.98+89.8255d V";
	voltage_AB "+4157.12-0.18274d V";
	voltage_BC "+4154.99-120.183d V";
	voltage_CA "+4156.04+119.843d V";
	frequency_measure_type "NONE";
	sfm_Tf "+0.01 s";
	pll_Kp "+10 pu";
	pll_Ki "+100 pu";
	measured_frequency_A "+60 Hz";
	measured_frequency_B "+60 Hz";
	measured_frequency_C "+60 Hz";
	measured_frequency "+60 Hz";
	service_status "IN_SERVICE";
	service_status_double "-1";
	previous_uptime "-1 min";
	current_uptime "+0.8 min";
	GFA_freq_low_trip "+59.5 Hz";
	GFA_freq_high_trip "+60.5 Hz";
	GFA_volt_low_trip "+0.8 pu";
	GFA_volt_high_trip "+1.2 pu";
	GFA_reconnect_time "+300 s";
	GFA_freq_disconnect_time "+0.2 s";
	GFA_volt_disconnect_time "+0.2 s";
	GFA_status "TRUE";
	// class.parent = powerflow.powerflow_object
	phases "ABCN";
	nominal_voltage "+2401.78 V";
}
object powerflow.overhead_line {
	name "line_node201_node202";
	// class.parent = powerflow.line
	configuration "lc_default_ABC";
	length "+175 ft";
	// class.parent = powerflow.link
	status "CLOSED";
	from "node_201";
	to "node_202i";
	power_in "+123357+8.6641d VA";
	power_out "+123345+8.65848d VA";
	power_out_real "+121940 W";
	power_losses "+19.1173+45.7524d VA";
	power_in_A "+29950.1+8.22806d VA";
	power_in_B "+51404.3+8.32674d VA";
	power_in_C "+42007.4+9.38784d VA";
	power_out_A "+29947+8.23055d VA";
	power_out_B "+51394.8+8.3172d VA";
	power_out_C "+42008.5+9.3811d VA";
	power_losses_A "+3.33865-14.7677d VA";
	power_losses_B "+12.8157+50.2236d VA";
	power_losses_C "+5.07+67.8502d VA";
	current_out_A "+9.78299-7.7452j A";
	current_out_B "-19.9363-7.84431j A";
	current_out_C "+2.90396+17.261j A";
	current_in_A "+9.78299-7.7452j A";
	current_in_B "-19.9363-7.84431j A";
	current_in_C "+2.90396+17.261j A";
	flow_direction "CR|BF|AF";
	continuous_rating "+1000 A";
	emergency_rating "+2000 A";
	inrush_convergence_value "+0.0001 V";
	// class.parent = powerflow.powerflow_object
	phases "ABCN";
	nominal_voltage "+2401.78 V";
}
object powerflow.node {
	name "node_202i";
	busflags "HASSOURCE";
	maximum_voltage_error "+0.00240178 V";
	voltage_A "+2400.03-30.1381d V";
	voltage_B "+2398.93-150.205d V";
	voltage_C "+2400+89.8312d V";
	voltage_AB "+4157.41-0.178971d V";
	voltage_BC "+4155.25-120.179d V";
	voltage_CA "+4156.3+119.847d V";
	frequency_measure_type "NONE";
	sfm_Tf "+0.01 s";
	pll_Kp "+10 pu";
	pll_Ki "+100 pu";
	measured_frequency_A "+60 Hz";
	measured_frequency_B "+60 Hz";
	measured_frequency_C "+60 Hz";
	measured_frequency "+60 Hz";
	service_status "IN_SERVICE";
	service_status_double "-1";
	previous_uptime "-1 min";
	current_uptime "+0.8 min";
	GFA_freq_low_trip "+59.5 Hz";
	GFA_freq_high_trip "+60.5 Hz";
	GFA_volt_low_trip "+0.8 pu";
	GFA_volt_high_trip "+1.2 pu";
	GFA_reconnect_time "+300 s";
	GFA_freq_disconnect_time "+0.2 s";
	GFA_volt_disconnect_time "+0.2 s";
	GFA_status "TRUE";
	// class.parent = powerflow.powerflow_object
	phases "ABCN";
	nominal_voltage "+2401.78 V";
}
object powerflow.overhead_line {
	name "line_node202_node203";
	// class.parent = powerflow.line
	configuration "lc_default_ABC";
	length "+175 ft";
	// class.parent = powerflow.link
	status "CLOSED";
	from "node_202";
	to "node_203i";
	power_in "+66375.4+8.31202d VA";
	power_out "+66370.2+8.30482d VA";
	power_out_real "+65674.3 W";
	power_losses "+13.402+42.125d VA";
	power_in_A "+6213.45+19.6894d VA";
	power_in_B "+36426.9+8.37587d VA";
	power_in_C "+23890.7+5.27366d VA";
	power_out_A "+6213.05+19.6981d VA";
	power_out_B "+36419.6+8.36533d VA";
	power_out_C "+23893.6+5.26806d VA";
	power_losses_A "+1.03003-47.478d VA";
	power_losses_B "+9.87226+51.109d VA";
	power_losses_C "+3.67943+34.1319d VA";