#set complex_format="%.0lf" // use only the real part
module commercial
{
    nightlight_threshold "5 W/m^2";
}
module tape
{
    csv_header_type NAME;
}

clock {
    timezone "US/CA/San Francisco";
    starttime "2020-01-01 00:00:00 PST";
    stoptime "2021-01-01 00:00:00 PST";
}

schedule parking_load
{
    weekday {
        * 21-4 * * 1-5 0.1;
        * 5 * * 1-5 0.2;
        * 6 * * 1-5 0.5;
        * 7 * * 1-5 0.8;
        * 8-17 * * 1-5 0.9;
        * 18 * * 1-5 0.8;
        * 19 * * 1-5 0.5;
        * 20 * * 1-5 0.2;
    }
    weekend {
        * 17-6 * * 6-0 0.1;
        * 7-16 * * 6-0 0.2;
    }
}

module climate;
#weather get WA-Yakima_Air_Terminal.tmy3
object climate 
{
    name "yakima";
    tmyfile "WA-Yakima_Air_Terminal.tmy3";
}

module powerflow;
object meter
{
    phases ABC;
    nominal_voltage 480;
    object load 
    {
        phases ABC;
        nominal_voltage 480;
        power_fraction_A 1.0;
        power_fraction_B 1.0;
        power_fraction_C 1.0;
        object parking
        {
            weather "yakima";
            lighting_nightonly TRUE;
            lighting_capacity "10+0.1j kVA";
            ventilation_power "5+0.2j kVA";
            charger_unit_power "6.7+0.5j kVA";
            charger_active parking_load*10;
            object recorder
            {
                file "test_parking.csv";
                interval "1h";
                property "lighting_power,ventilation_power,charger_power,total_power";
                flush 0;
            };
        };
    };
    object recorder 
    {
        file "test_parking_meter.csv";
        property "measured_power_A,measured_power_B,measured_power_C";
        interval "1h";
        flush 0;
    };
}

#for FILE in test_parking.csv test_parking_meter.csv
#ifexist "../${FILE}"
#on_exit 0 diff ../${FILE} ${FILE} >> gridlabd.err 
#endif
#done