// test_IEEE123_link_outages.glm
#set relax_naming_rules=TRUE
#set suppress_repeat_messages=FALSE
#set pythonpath=..

module test_IEEE123_link_outages;
clock
{
	timezone "PST+8PDT";
	starttime "2020-01-01 00:00:00 PST";
}
module reliability
{
	report_event_log "FALSE";
}
module powerflow
{
	solver_method "NR";
     convergence_error_handling "COLLAPSE";
}
object fault_check
{
	name "base_fault_check_object";
	check_mode "ONCHANGE";
	strictly_radial "FALSE";
	grid_association "TRUE";
	output_filename "test_IEEE123_link_outages.txt";
	reliability_mode "TRUE";
}

// Phase Conductor for 1 thru 8: 336,400 26/7 ACSR
object overhead_line_conductor:10001
{
	geometric_mean_radius "0.0244";
	resistance "0.30600";
}

// Phase Conductor for 9 thru 11: 1/0 ACSR
object overhead_line_conductor:10009
{
	geometric_mean_radius "0.004460";
	resistance "1.12000";
}	
// Phase Conductor for neutral: 4/0 6/1 ACSR
object overhead_line_conductor:10002
{
	geometric_mean_radius "0.008140";
	resistance "0.59200";
}

// Phase Conductor for 12: 1/0 AA,TS
object underground_line_conductor:10003
{
	outer_diameter "1.060000";
	conductor_gmr "0.011100";
	conductor_diameter "0.368000";
	conductor_resistance "0.970000";
	neutral_gmr "0.011100";
	neutral_resistance "0.970000";
	neutral_diameter "0.0640837";
	neutral_strands "6.000000";
	shield_gmr "0.000000";
	shield_resistance "0.000000";
}

// Overhead line configurations
// ABCN
object line_spacing:5001
{
	distance_AB "2.5";
	distance_AC "7.0";
	distance_BC "4.5";
	distance_AN "5.656854";
	distance_BN "4.272002";
	distance_CN "5.0";
}

// CABN
object line_spacing:5002
{
	distance_AB "4.5";
	distance_AC "2.5";
	distance_BC "7.0";
	distance_AN "5.0";
	distance_BN "4.272002";
	distance_CN "5.656854";
}

// BCAN
object line_spacing:5003
{
	distance_AB "7.0";
	distance_AC "4.5";
	distance_BC "2.5";
	distance_AN "5.0";
	distance_BN "5.656854";
	distance_CN "4.272002";
}

// CBAN
object line_spacing:5004
{
	distance_AB "4.5";
	distance_AC "7.0";
	distance_BC "2.5";
	distance_AN "5.0";
	distance_BN "4.272002";
	distance_CN "5.656854";
}

// BACN
object line_spacing:5005
{
	distance_AB "2.5";
	distance_AC "4.5";
	distance_BC "7.0";
	distance_BN "5.656854";
	distance_AN "4.272002";
	distance_CN "5.0";
}

// ACBN
object line_spacing:5006
{
	distance_AB "7.0";
	distance_AC "2.5";
	distance_BC "4.5";
	distance_AN "5.656854";
	distance_CN "4.272002";
	distance_BN "5.0";
}

//ACN
object line_spacing:5007
{
	distance_AB "0.0";
	distance_AC "7.0";
	distance_BC "0.0";
	distance_AN "5.656854";
	distance_BN "0.0";
	distance_CN "5.0";
}

//ABN
object line_spacing:5008
{
	distance_AB "7.0";
	distance_AC "0.0";
	distance_BC "0.0";
	distance_AN "5.656854";
	distance_BN "5.0";
	distance_CN "0.0";
}

//AN
object line_spacing:5009
{
	distance_AB "0.0";
	distance_AC "0.0";
	distance_BC "0.0";
	distance_AN "5.0";
	distance_BN "0.0";
	distance_CN "0.0";
}

//BN
object line_spacing:50010
{
	distance_AB "0.0";
	distance_AC "0.0";
	distance_BC "0.0";
	distance_AN "0.0";
	distance_BN "5.0";
	distance_CN "0.0";
}

//CN
object line_spacing:50011
{
	distance_AB "0.0";
	distance_AC "0.0";
	distance_BC "0.0";
	distance_AN "0.0";
	distance_BN "0.0";
	distance_CN "5.0";
}

//ABC
object line_spacing:50012
{
	distance_AB "0.5";
	distance_AC "1.0";
	distance_BC "0.5";
	distance_AN "0.0";
	distance_BN "0.0";
	distance_CN "0.0";
}
object line_configuration:1001
{
	conductor_A "overhead_line_conductor:10001";
	conductor_B "overhead_line_conductor:10001";
	conductor_C "overhead_line_conductor:10001";
	conductor_N "overhead_line_conductor:10002";
	spacing "line_spacing:5001";
}
object line_configuration:1002
{
	conductor_A "overhead_line_conductor:10001";
	conductor_B "overhead_line_conductor:10001";
	conductor_C "overhead_line_conductor:10001";
	conductor_N "overhead_line_conductor:10002";
	spacing "line_spacing:5002";
}
object line_configuration:1003
{
	conductor_A "overhead_line_conductor:10001";
	conductor_B "overhead_line_conductor:10001";
	conductor_C "overhead_line_conductor:10001";
	conductor_N "overhead_line_conductor:10002";
	spacing "line_spacing:5003";
}
object line_configuration:1004
{
	conductor_A "overhead_line_conductor:10001";
	conductor_B "overhead_line_conductor:10001";
	conductor_C "overhead_line_conductor:10001";
	conductor_N "overhead_line_conductor:10002";
	spacing "line_spacing:5004";
}
object line_configuration:1005
{
	conductor_A "overhead_line_conductor:10001";
	conductor_B "overhead_line_conductor:10001";
	conductor_C "overhead_line_conductor:10001";
	conductor_N "overhead_line_conductor:10002";
	spacing "line_spacing:5005";
}
object line_configuration:1006
{
	conductor_A "overhead_line_conductor:10001";
	conductor_B "overhead_line_conductor:10001";
	conductor_C "overhead_line_conductor:10001";
	conductor_N "overhead_line_conductor:10002";
	spacing "line_spacing:5006";
}
object line_configuration:1007
{
	conductor_A "overhead_line_conductor:10001";
	conductor_C "overhead_line_conductor:10001";
	conductor_N "overhead_line_conductor:10002";
	spacing "line_spacing:5007";
}
object line_configuration:1008
{
	conductor_A "overhead_line_conductor:10001";
	conductor_B "overhead_line_conductor:10001";
	conductor_N "overhead_line_conductor:10002";
	spacing "line_spacing:5008";
}
object line_configuration:1009
{
	conductor_A "overhead_line_conductor:10009";
	conductor_N "overhead_line_conductor:10009";
	spacing "line_spacing:5009";
}
object line_configuration:10010
{
	conductor_B "overhead_line_conductor:10009";
	conductor_N "overhead_line_conductor:10009";
	spacing "line_spacing:50010";
}
object line_configuration:10011
{
	conductor_C "overhead_line_conductor:10009";
	conductor_N "overhead_line_conductor:10009";
	spacing "line_spacing:50011";
}
object line_configuration:10012
{
	conductor_A "underground_line_conductor:10003";
	conductor_B "underground_line_conductor:10003";
	conductor_C "underground_line_conductor:10003";
	spacing "line_spacing:50012";
}

//Define line objects
object overhead_line:
{
	phases "BN";
	name "oh_1-2";
	from "load:1";
	to "load:2";
	length "175";
	configuration "line_configuration:10010";
}
object overhead_line:
{
	phases "CN";
	name "oh_1-3";
	from "load:1";
	to "node:3";
	length "250";
	configuration "line_configuration:10011";
}
object overhead_line:
{
	phases "ABCN";
	name "oh_1-7";
	from "load:1";
	to "load:7";
	length "300";
	configuration "line_configuration:1001";
}
object overhead_line:
{
	phases "CN";
	name "oh_3-4";
	from "node:3";
	to "load:4";
	length "200";
	configuration "line_configuration:10011";
}
object overhead_line:
{
	phases "CN";
	name "oh_3-5";
	from "node:3";
	to "load:5";
	length "325";
	configuration "line_configuration:10011";
}
object overhead_line:
{
	phases "CN";
	name "oh_5-6";
	from "load:5";
	to "load:6";
	length "250";
	configuration "line_configuration:10011";
}
object overhead_line:
{
	phases "ABCN";
	name "oh_7-8";
	from "load:7";
	to "node:8";
	length "200";
	configuration "line_configuration:1001";
}
object overhead_line:
{
	phases "BN";
	name "oh_8-12";
	from "node:8";
	to "load:12";
	length "225";
	configuration "line_configuration:10010";
}
object overhead_line:
{
	phases "AN";
	name "oh_8-9";
	from "node:8";
	to "load:9";
	length "225";
	configuration "line_configuration:1009";
}
object overhead_line:
{
	phases "ABCN";
	name "oh_8-13";
	from "node:8";
	to "node:13";
	length "300";
	configuration "line_configuration:1001";
}
object overhead_line:
{
	phases "AN";
	name "oh_1401-14";
	from "node:1401";
	to "node:14";
	length "425";
	configuration "line_configuration:1009";
}
object overhead_line:
{
	phases "CN";
	name "oh_13-34";
	from "node:13";
	to "load:34";
	length "150";
	configuration "line_configuration:10011";
}
object overhead_line:
{
	phases "ABCN";
	name "oh_13-18";
	from "node:13";
	to "node:18";
	length "825";
	configuration "line_configuration:1002";
}
object overhead_line:
{
	phases "AN";
	name "oh_14-11";
	from "node:14";
	to "load:11";
	length "250";
	configuration "line_configuration:1009";
}
object overhead_line:
{
	phases "AN";
	name "oh_14-10";
	from "node:14";
	to "load:10";
	length "250";
	configuration "line_configuration:1009";
}
object overhead_line:
{
	phases "CN";
	name "oh_15-16";
	from "node:15";
	to "load:16";
	length "375";
	configuration "line_configuration:10011";
}
object overhead_line:
{
	phases "CN";
	name "oh_15-17";
	from "node:15";
	to "load:17";
	length "350";
	configuration "line_configuration:10011";
}
object overhead_line:
{
	phases "AN";
	name "oh_18-19";
	from "node:18";
	to "load:19";
	length "250";
	configuration "line_configuration:1009";
}
object overhead_line:
{
	phases "ABCN";
	name "oh_18-21";
	from "node:18";
	to "node:21";
	length "300";
	configuration "line_configuration:1002";
}
object overhead_line:
{
	phases "AN";
	name "oh_19-20";
	from "load:19";
	to "load:20";
	length "325";
	configuration "line_configuration:1009";
}
object overhead_line:
{
	phases "BN";
	name "oh_21-22";
	from "node:21";
	to "load:22";
	length "525";
	configuration "line_configuration:10010";
}
object overhead_line:
{
	phases "ABCN";
	name "oh_21-23";
	from "node:21";
	to "node:23";
	length "250";
	configuration "line_configuration:1002";
}
object overhead_line:
{
	phases "CN";
	name "oh_23-24";
	from "node:23";
	to "load:24";
	length "550";
	configuration "line_configuration:10011";
}
object overhead_line:
{
	phases "ABCN";
	name "oh_23-25";
	from "node:23";
	to "node:25";
	length "275";
	configuration "line_configuration:1002";
}
object overhead_line:
{
	phases "ACN";
	name "oh_2601-26";
	from "node:2601";
	to "node:26";
	length "350";
	configuration "line_configuration:1007";
}
object overhead_line:
{
	phases "ABCN";
	name "oh_25-28";
	from "node:25";
	to "load:28";
	length "200";
	configuration "line_configuration:1002";
}
object overhead_line:
{
	phases "ACN";
	name "oh_26-27";
	from "node:26";
	to "node:27";
	length "275";
	configuration "line_configuration:1007";
}
object overhead_line:
{
	phases "CN";
	name "oh_26-31";
	from "node:26";
	to "load:31";
	length "225";
	configuration "line_configuration:10011";
}
object overhead_line:
{
	phases "AN";
	name "oh_27-33";
	from "node:27";
	to "load:33";
	length "500";
	configuration "line_configuration:1009";
}
object overhead_line:
{
	phases "ABCN";
	name "oh_28-29";
	from "load:28";
	to "load:29";
	length "300";
	configuration "line_configuration:1002";
}
object overhead_line:
{
	phases "ABCN";
	name "oh_29-30";
	from "load:29";
	to "load:30";
	length "350";
	configuration "line_configuration:1002";
}
object overhead_line:
{
	phases "ABCN";
	name "oh_30-250";
	from "load:30";
	to "node:250";
	length "200";
	configuration "line_configuration:1002";
}
object overhead_line:
{
	phases "CN";
	name "oh_31-32";
	from "load:31";
	to "load:32";
	length "300";
	configuration "line_configuration:10011";
}
object overhead_line:
{
	phases "CN";
	name "oh_34-15";
	from "load:34";
	to "node:15";
	length "100";
	configuration "line_configuration:10011";
}
object overhead_line:
{
	phases "ABN";
	name "oh_35-36";
	from "load:35";
	to "node:36";
	length "650";
	configuration "line_configuration:1008";
}
object overhead_line:
{
	phases "ABCN";
	name "oh_35-40";
	from "load:35";
	to "node:40";
	length "250";
	configuration "line_configuration:1001";
}
object overhead_line:
{
	phases "AN";
	name "oh_36-37";
	from "node:36";
	to "load:37";
	length "300";
	configuration "line_configuration:1009";
}
object overhead_line:
{
	phases "BN";
	name "oh_36-38";
	from "node:36";
	to "load:38";
	length "250";
	configuration "line_configuration:10010";
}
object overhead_line:
{
	phases "BN";
	name "oh_38-39";
	from "load:38";
	to "load:39";
	length "325";
	configuration "line_configuration:10010";
}
object overhead_line:
{
	phases "CN";
	name "oh_40-41";
	from "node:40";
	to "load:41";
	length "325";
	configuration "line_configuration:10011";
}
object overhead_line:
{
	phases "ABCN";
	name "oh_40-42";
	from "node:40";
	to "load:42";
	length "250";
	configuration "line_configuration:1001";
}
object overhead_line:
{
	phases "BN";
	name "oh_42-43";
	from "load:42";
	to "load:43";
	length "500";
	configuration "line_configuration:10010";
}
object overhead_line:
{
	phases "ABCN";
	name "oh_42-44";
	from "load:42";
	to "node:44";
	length "200";
	configuration "line_configuration:1001";
}
object overhead_line:
{
	phases "AN";
	name "oh_44-45";
	from "node:44";
	to "load:45";
	length "200";
	configuration "line_configuration:1009";
}
object overhead_line:
{
	phases "ABCN";
	name "oh_44-47";
	from "node:44";
	to "load:47";
	length "250";
	configuration "line_configuration:1001";
}
object overhead_line:
{
	phases "AN";
	name "oh_45-46";
	from "load:45";
	to "load:46";
	length "300";
	configuration "line_configuration:1009";
}
object overhead_line:
{
	phases "ABCN";
	name "oh_47-48";
	from "load:47";
	to "load:48";
	length "150";
	configuration "line_configuration:1004";
}
object overhead_line:
{
	phases "ABCN";
	name "oh_47-49";
	from "load:47";
	to "load:49";
	length "250";
	configuration "line_configuration:1004";
}
object overhead_line:
{
	phases "ABCN";
	name "oh_49-50";
	from "load:49";
	to "load:50";
	length "250";
	configuration "line_configuration:1004";
}
object overhead_line:
{
	phases "ABCN";
	name "oh_50-51";
	from "load:50";
	to "load:51";
	length "250";
	configuration "line_configuration:1004";
}
object overhead_line:
{
	phases "ABCN";		//undefined line segment
	name "oh_51-151";
	from "load:51";
	to "node:151";
	length "700";
	configuration "line_configuration:1004";
}
object overhead_line:
{
	phases "ABCN";
	name "oh_52-53";
	from "load:52";
	to "load:53";
	length "200";
	configuration "line_configuration:1001";
}
object overhead_line:
{
	phases "ABCN";
	name "oh_53-54";
	from "load:53";
	to "node:54";
	length "125";
	configuration "line_configuration:1001";
}
object overhead_line:
{
	phases "ABCN";
	name "oh_54-55";
	from "node:54";
	to "load:55";
	length "275";
	configuration "line_configuration:1001";
}
object overhead_line:
{
	phases "ABCN";
	name "oh_54-57";
	from "node:54";
	to "node:57";
	length "350";
	configuration "line_configuration:1003";
}
object overhead_line:
{
	phases "ABCN";
	name "oh_55-56";
	from "load:55";
	to "load:56";
	length "275";
	configuration "line_configuration:1001";
}
object overhead_line:
{
	phases "BN";
	name "oh_57-58";
	from "node:57";
	to "load:58";
	length "250";
	configuration "line_configuration:10010";
}
object overhead_line:
{
	phases "ABCN";
	name "oh_57-60";
	from "node:57";
	to "load:60";
	length "750";
	configuration "line_configuration:1003";
}
object overhead_line:
{
	phases "BN";
	name "oh_58-59";
	from "load:58";
	to "load:59";
	length "250";
	configuration "line_configuration:10010";
}
object overhead_line:
{
	phases "ABCN";
	name "oh_60-61";
	from "load:60";
	to "node:61";
	length "550";
	configuration "line_configuration:1005";
}
object underground_line:
{
	phases "ABC";
	name "ugl_60-62";
	from "load:60";
	to "load:62";
	length "250";
	configuration "line_configuration:10012";
}
object underground_line:
{
	phases "ABC";
	name "ugl_62-63";
	from "load:62";
	to "load:63";
	length "175";
	configuration "line_configuration:10012";
}
object underground_line:
{
	phases "ABC";
	name "ugl_63-64";
	from "load:63";
	to "load:64";
	length "350";
	configuration "line_configuration:10012";
}
object underground_line:
{
	phases "ABC";
	name "ugl_64-65";
	from "load:64";
	to "load:65";
	length "425";
	configuration "line_configuration:10012";
}
object underground_line:
{
	phases "ABC";
	name "ugl_65-66";
	from "load:65";
	to "load:66";
	length "325";
	configuration "line_configuration:10012";
}
object overhead_line:
{
	phases "AN";
	name "oh_67-68";
	from "node:67";
	to "load:68";
	length "200";
	configuration "line_configuration:1009";
}
object overhead_line:
{
	phases "ABCN";
	name "oh_67-72";
	from "node:67";
	to "node:72";
	length "275";
	configuration "line_configuration:1003";
}
object overhead_line:
{
	phases "ABCN";
	name "oh_67-97";
	from "node:67";
	to "node:97";
	length "250";
	configuration "line_configuration:1003";
}
object overhead_line:
{
	phases "AN";
	name "oh_68-69";
	from "load:68";
	to "load:69";
	length "275";
	configuration "line_configuration:1009";
}
object overhead_line:
{
	phases "AN";
	name "oh_69-70";
	from "load:69";
	to "load:70";
	length "325";
	configuration "line_configuration:1009";
}
object overhead_line:
{
	phases "AN";
	name "oh_70-71";
	from "load:70";
	to "load:71";
	length "275";
	configuration "line_configuration:1009";
}
object overhead_line:
{
	phases "CN";
	name "oh_72-73";
	from "node:72";
	to "load:73";
	length "275";
	configuration "line_configuration:10011";
}
object overhead_line:
{
	phases "ABCN";
	name "oh_72-76";
	from "node:72";
	to "load:76";
	length "200";
	configuration "line_configuration:1003";
}
object overhead_line:
{
	phases "CN";
	name "oh_73-74";
	from "load:73";
	to "load:74";
	length "350";
	configuration "line_configuration:10011";
}
object overhead_line:
{
	phases "CN";
	name "oh_74-75";
	from "load:74";
	to "load:75";
	length "400";
	configuration "line_configuration:10011";
}
object overhead_line:
{
	phases "ABCN";
	name "oh_76-77";
	from "load:76";
	to "load:77";
	length "400";
	configuration "line_configuration:1006";
}
object overhead_line:
{
	phases "ABCN";
	name "oh_76-86";
	from "load:76";
	to "load:86";
	length "700";
	configuration "line_configuration:1003";
}
object overhead_line:
{
	phases "ABCN";
	name "oh_77-78";
	from "load:77";
	to "node:78";
	length "100";
	configuration "line_configuration:1006";
}
object overhead_line:
{
	phases "ABCN";
	name "oh_78-79";
	from "node:78";
	to "load:79";
	length "225";
	configuration "line_configuration:1006";
}
object overhead_line:
{
	phases "ABCN";
	name "oh_78-80";
	from "node:78";
	to "load:80";
	length "475";
	configuration "line_configuration:1006";
}
object overhead_line:
{
	phases "ABCN";
	name "oh_80-81";
	from "load:80";
	to "node:81";
	length "475";
	configuration "line_configuration:1006";
}
object overhead_line:
{
	phases "ABCN";
	name "oh_81-82";
	from "node:81";
	to "load:82";
	length "250";
	configuration "line_configuration:1006";
}
object overhead_line:
{
	phases "CN";
	name "oh_81-84";
	from "node:81";
	to "load:84";
	length "675";
	configuration "line_configuration:10011";
}
object overhead_line:
{
	phases "ABCN";
	name "oh_82-83";
	from "load:82";
	to "load:83";
	length "250";
	configuration "line_configuration:1006";
}
object overhead_line:
{
	phases "CN";
	name "oh_84-85";
	from "load:84";
	to "load:85";
	length "475";
	configuration "line_configuration:10011";
}
object overhead_line:
{
	phases "ABCN";
	name "oh_86-87";
	from "load:86";
	to "load:87";
	length "450";
	configuration "line_configuration:1006";
}
object overhead_line:
{
	phases "AN";
	name "oh_87-88";
	from "load:87";
	to "load:88";
	length "175";
	configuration "line_configuration:1009";
}
object overhead_line:
{
	phases "ABCN";
	name "oh_87-89";
	from "load:87";
	to "node:89";
	length "275";
	configuration "line_configuration:1006";
}
object overhead_line:
{
	phases "BN";
	name "oh_89-90";
	from "node:89";
	to "load:90";
	length "225";
	configuration "line_configuration:10010";
}
object overhead_line:
{
	phases "ABCN";
	name "oh_89-91";
	from "node:89";
	to "node:91";
	length "225";
	configuration "line_configuration:1006";
}
object overhead_line:
{
	phases "CN";
	name "oh_91-92";
	from "node:91";
	to "load:92";
	length "300";
	configuration "line_configuration:10011";
}
object overhead_line:
{
	phases "ABCN";
	name "oh_91-93";
	from "node:91";
	to "node:93";
	length "225";
	configuration "line_configuration:1006";
}
object overhead_line:
{
	phases "AN";
	name "oh_93-94";
	from "node:93";
	to "load:94";
	length "275";
	configuration "line_configuration:1009";
}
object overhead_line:
{
	phases "ABCN";
	name "oh_93-95";
	from "node:93";
	to "load:95";
	length "300";
	configuration "line_configuration:1006";
}
object overhead_line:
{
	phases "BN";
	name "oh_95-96";
	from "load:95";
	to "load:96";
	length "200";
	configuration "line_configuration:10010";
}
object overhead_line:
{
	phases "ABCN";
	name "oh_97-98";
	from "node:97";
	to "load:98";
	length "275";
	configuration "line_configuration:1003";
}
object overhead_line:
{
	phases "ABCN";
	name "oh_98-99";
	from "load:98";
	to "load:99";
	length "550";
	configuration "line_configuration:1003";
}
object overhead_line:
{
	phases "ABCN";
	name "oh_99-100";
	from "load:99";
	to "load:100";
	length "300";
	configuration "line_configuration:1003";
}
object overhead_line:
{
	phases "ABCN";
	name "oh_100-450";
	from "load:100";
	to "node:450";
	length "800";
	configuration "line_configuration:1003";
}
object overhead_line:
{
	phases "CN";
	name "oh_101-102";
	from "node:101";
	to "load:102";
	length "225";
	configuration "line_configuration:10011";
}
object overhead_line:
{
	phases "ABCN";
	name "oh_101-105";
	from "node:101";
	to "node:105";
	length "275";
	configuration "line_configuration:1003";
}
object overhead_line:
{
	phases "CN";
	name "oh_102-103";
	from "load:102";
	to "load:103";
	length "325";
	configuration "line_configuration:10011";
}
object overhead_line:
{
	phases "CN";
	name "oh_103-104";
	from "load:103";
	to "load:104";
	length "700";
	configuration "line_configuration:10011";
}
object overhead_line:
{
	phases "BN";
	name "oh_105-106";
	from "node:105";
	to "load:106";
	length "225";
	configuration "line_configuration:10010";
}
object overhead_line:
{
	phases "ABCN";
	name "oh_105-108";
	from "node:105";
	to "node:108";
	length "325";
	configuration "line_configuration:1003";
}
object overhead_line:
{
	phases "BN";
	name "oh_106-107";
	from "load:106";
	to "load:107";
	length "575";
	configuration "line_configuration:10010";
}
object overhead_line:
{
	phases "AN";
	name "oh_108-109";
	from "node:108";
	to "load:109";
	length "450";
	configuration "line_configuration:1009";
}
object overhead_line:
{
	phases "ABCN";
	name "oh_108-300";
	from "node:108";
	to "node:300";
	length "1000";
	configuration "line_configuration:1003";
}
object overhead_line:
{
	phases "AN";
	name "oh_109-110";
	from "load:109";
	to "node:110";
	length "300";
	configuration "line_configuration:1009";
}
object overhead_line:
{
	phases "AN";
	name "oh_110-111";
	from "node:110";
	to "load:111";
	length "575";
	configuration "line_configuration:1009";
}
object overhead_line:
{
	phases "AN";
	name "oh_110-112";
	from "node:110";
	to "load:112";
	length "125";
	configuration "line_configuration:1009";
}
object overhead_line:
{
	phases "AN";
	name "oh_112-113";
	from "load:112";
	to "load:113";
	length "525";
	configuration "line_configuration:1009";
}
object overhead_line:
{
	phases "AN";
	name "oh_113-114";
	from "load:113";
	to "load:114";
	length "325";
	configuration "line_configuration:1009";
}
object overhead_line:
{
	phases "ABCN";
	name "oh_135-35";
	from "node:135";
	to "load:35";
	length "375";
	configuration "line_configuration:1004";
}
object overhead_line:
{
	phases "ABCN";
	name "oh_149-1";
	from "node:149";
	to "load:1";
	length "400";
	configuration "line_configuration:1001";
}
object overhead_line:
{
	phases "ABCN";
	name "oh_152-52";
	from "node:152";
	to "load:52";
	length "400";
	configuration "line_configuration:1001";
}
object overhead_line:
{
	phases "ABCN";
	name "oh_6701-67";
	from "node:6701";
	to "node:67";
	length "350";
	configuration "line_configuration:1006";
}
object overhead_line:
{
	phases "ABCN";
	name "oh_197-101";
	from "node:197";
	to "node:101";
	length "250";
	configuration "line_configuration:1003";
}

// Create node only objects
object node:3
{
	phases "CN";
	name "no_3";
	voltage_A "2401.7771";
	voltage_B "-1200.8886-2080.000j";
	voltage_C "-1200.8886+2080.000j";
	nominal_voltage "2401.7771";
}
object node:8
{
	phases "ABCN";
	name "no_8";
	voltage_A "2401.7771";
	voltage_B "-1200.8886-2080.000j";
	voltage_C "-1200.8886+2080.000j";
	nominal_voltage "2401.7771";
}
object node:13
{
	phases "ABCN";
	name "no_13";
	voltage_A "2401.7771";
	voltage_B "-1200.8886-2080.000j";
	voltage_C "-1200.8886+2080.000j";
	nominal_voltage "2401.7771";
}
object node:14
{
	phases "AN";
	name "no_14";
	voltage_A "2401.7771";
	voltage_B "-1200.8886-2080.000j";
	voltage_C "-1200.8886+2080.000j";
	nominal_voltage "2401.7771";
}
object node:1401
{
	phases "AN";
	name "no_1401";
	voltage_A "2401.7771";
	voltage_B "-1200.8886-2080.000j";
	voltage_C "-1200.8886+2080.000j";
	nominal_voltage "2401.7771";
}
object node:15
{
	phases "CN";
	name "no_15";
	voltage_A "2401.7771";
	voltage_B "-1200.8886-2080.000j";
	voltage_C "-1200.8886+2080.000j";
	nominal_voltage "2401.7771";
}
object node:18
{
	phases "ABCN";
	name "no_18";
	voltage_A "2401.7771";
	voltage_B "-1200.8886-2080.000j";
	voltage_C "-1200.8886+2080.000j";
	nominal_voltage "2401.7771";
}
object node:21
{
	phases "ABCN";
	name "no_21";
	voltage_A "2401.7771";
	voltage_B "-1200.8886-2080.000j";
	voltage_C "-1200.8886+2080.000j";
	nominal_voltage "2401.7771";
}
object node:23
{
	phases "ABCN";
	name "no_23";
	voltage_A "2401.7771";
	voltage_B "-1200.8886-2080.000j";
	voltage_C "-1200.8886+2080.000j";
	nominal_voltage "2401.7771";
}
object node:25
{
	phases "ABCN";
	name "no_25";
	voltage_A "2401.7771";
	voltage_B "-1200.8886-2080.000j";
	voltage_C "-1200.8886+2080.000j";
	nominal_voltage "2401.7771";
}
object node:26
{
	phases "ACN";
	name "no_26";
	voltage_A "2401.7771";
	voltage_B "-1200.8886-2080.000j";
	voltage_C "-1200.8886+2080.000j";
	nominal_voltage "2401.7771";
}
object node:2601
{
	phases "ACN";
	name "no_2601";
	voltage_A "2401.7771";
	voltage_B "-1200.8886-2080.000j";
	voltage_C "-1200.8886+2080.000j";
	nominal_voltage "2401.7771";
}
object node:27
{
	phases "ACN";
	name "no_27";
	voltage_A "2401.7771";
	voltage_B "-1200.8886-2080.000j";
	voltage_C "-1200.8886+2080.000j";
	nominal_voltage "2401.7771";
}
object node:36
{
	phases "ABN";
	name "no_36";
	voltage_A "2401.7771";
	voltage_B "-1200.8886-2080.000j";
	voltage_C "-1200.8886+2080.000j";
	nominal_voltage "2401.7771";
}
object node:40
{
	phases "ABCN";
	name "no_40";
	voltage_A "2401.7771";
	voltage_B "-1200.8886-2080.000j";
	voltage_C "-1200.8886+2080.000j";
	nominal_voltage "2401.7771";
}
object node:44
{
	phases "ABCN";
	name "no_44";
	voltage_A "2401.7771";
	voltage_B "-1200.8886-2080.000j";
	voltage_C "-1200.8886+2080.000j";
	nominal_voltage "2401.7771";
}
object node:54
{
	phases "ABCN";
	name "no_54";
	voltage_A "2401.7771";
	voltage_B "-1200.8886-2080.000j";
	voltage_C "-1200.8886+2080.000j";
	nominal_voltage "2401.7771";
}
object node:57
{
	phases "ABCN";
	name "no_57";
	voltage_A "2401.7771";
	voltage_B "-1200.8886-2080.000j";
	voltage_C "-1200.8886+2080.000j";
	nominal_voltage "2401.7771";
}
object node:61
{
	phases "ABCN";
	name "no_61";
	voltage_A "2401.7771";
	voltage_B "-1200.8886-2080.000j";
	voltage_C "-1200.8886+2080.000j";
	nominal_voltage "2401.7771";
}
object node:67
{
	phases "ABCN";
	name "no_67";
	voltage_A "2401.7771";
	voltage_B "-1200.8886-2080.000j";
	voltage_C "-1200.8886+2080.000j";
	nominal_voltage "2401.7771";
}
object node:6701
{
	phases "ABCN";
	name "no_6701";
	voltage_A "2401.7771";
	voltage_B "-1200.8886-2080.000j";
	voltage_C "-1200.8886+2080.000j";
	nominal_voltage "2401.7771";
}
object node:72
{
	phases "ABCN";
	name "no_72";
	voltage_A "2401.7771";
	voltage_B "-1200.8886-2080.000j";
	voltage_C "-1200.8886+2080.000j";
	nominal_voltage "2401.7771";
}
object node:78
{
	phases "ABCN";
	name "no_78";
	voltage_A "2401.7771";
	voltage_B "-1200.8886-2080.000j";
	voltage_C "-1200.8886+2080.000j";
	nominal_voltage "2401.7771";
}
object node:81
{
	phases "ABCN";
	name "no_81";
	voltage_A "2401.7771";
	voltage_B "-1200.8886-2080.000j";
	voltage_C "-1200.8886+2080.000j";
	nominal_voltage "2401.7771";
}
object node:89
{
	phases "ABCN";
	name "no_89";
	voltage_A "2401.7771";
	voltage_B "-1200.8886-2080.000j";
	voltage_C "-1200.8886+2080.000j";
	nominal_voltage "2401.7771";
}
object node:91
{
	phases "ABCN";
	name "no_91";
	voltage_A "2401.7771";
	voltage_B "-1200.8886-2080.000j";
	voltage_C "-1200.8886+2080.000j";
	nominal_voltage "2401.7771";
}
object node:93
{
	phases "ABCN";
	name "no_93";
	voltage_A "2401.7771";
	voltage_B "-1200.8886-2080.000j";
	voltage_C "-1200.8886+2080.000j";
	nominal_voltage "2401.7771";
}
object node:97
{
	phases "ABCN";
	name "no_97";
	voltage_A "2401.7771";
	voltage_B "-1200.8886-2080.000j";
	voltage_C "-1200.8886+2080.000j";
	nominal_voltage "2401.7771";
}
object node:101
{
	phases "ABCN";
	name "no_101";
	voltage_A "2401.7771";
	voltage_B "-1200.8886-2080.000j";
	voltage_C "-1200.8886+2080.000j";
	nominal_voltage "2401.7771";
}
object node:105
{
	phases "ABCN";
	name "no_105";
	voltage_A "2401.7771";
	voltage_B "-1200.8886-2080.000j";
	voltage_C "-1200.8886+2080.000j";
	nominal_voltage "2401.7771";
}
object node:108
{
	phases "ABCN";
	name "no_108";
	voltage_A "2401.7771";
	voltage_B "-1200.8886-2080.000j";
	voltage_C "-1200.8886+2080.000j";
	nominal_voltage "2401.7771";
}
object node:110
{
	phases "AN";
	name "no_110";
	voltage_A "2401.7771";
	voltage_B "-1200.8886-2080.000j";
	voltage_C "-1200.8886+2080.000j";
	nominal_voltage "2401.7771";
}
object node:135
{
	phases "ABCN";
	name "no_135";
	voltage_A "2401.7771";
	voltage_B "-1200.8886-2080.000j";
	voltage_C "-1200.8886+2080.000j";
	nominal_voltage "2401.7771";
}
object node:149
{
	phases "ABCN";
	name "no_149";
	voltage_A "2401.7771";
	voltage_B "-1200.8886-2080.000j";
	voltage_C "-1200.8886+2080.000j";
	nominal_voltage "2401.7771";
}
object node:1491
{
	phases "ABCN";
	name "no_1491";
	voltage_A "2401.7771";
	voltage_B "-1200.8886-2080.000j";
	voltage_C "-1200.8886+2080.000j";
	nominal_voltage "2401.7771";
}
object node:150
{
	phases "ABCN";
	name "no_150";
	bustype "SWING";
	voltage_A "2401.7771";
	voltage_B "-1200.8886-2080.000j";
	voltage_C "-1200.8886+2080.000j";
	nominal_voltage "2401.7771";
}
object node:151
{
	phases "ABCN";
	name "no_151";
	voltage_A "2401.7771";