module assert;

clock 
{
	starttime "2019-01-01 00:00:00";
	stoptime "2020-01-01 00:00:00";
}

module powerflow;
module climate;

#input "../table2glm_input_noname.csv" -f "table" -t "object"

object assert {
	parent "climate_1";
	target "wind_speed";
	value 4 m/s;
}

object assert {
	parent "climate_1";
	target "temperature";
	value 95 degF;
}