#option compile

module assert;
module climate;
module commercial;
module generators;
module industrial;
module influxdb;
module market;
module optimize;
module powerflow;
module reliability;
module residential;
module revenue;
module tape;

#output "test_markdown.md"

// TODO: check markdown output somehow
