module assert;

#ifexist "../table2glm_input_noname.csv"
#define DIR=..
#endif

clock 
{
	starttime "2019-01-01 00:00:00";
	stoptime "2020-01-01 00:00:00";
}

module powerflow;
module climate;

global double wind_speed[m/s] 4;
global double temperature[degF] 95;

#input "${DIR:-.}/table2glm_input_noname.csv" -f "table" -t "object"

#for OBJ in ${FIND class=climate} 
object assert {
	parent ${OBJ};
	target "wind_speed";
	value 4 m/s;
}

object assert {
	parent ${OBJ};
	target "temperature";
	value 95 degF;
}
#done