// File: test_json_conversion.glm
//
// This autotest verifies that a GLM converted to JSON and back to GLM 
// produces the same output as the original GLM
//

#set suppress_repeat_messages=FALSE

#ifndef SAVEFILE // main run does not specify SAVEFILE

#gridlabd -D SAVEFILE=waterheater_1.csv test_json_conversion.glm
#gridlabd -D SAVEFILE=waterheater_2.csv -D filesave_options=ALLINITIAL -I test_json_conversion.glm -o test_json_conversion_save.json 
#gridlabd test_json_conversion_save.json -D filesave_options=ALLINITIAL -o test_json_conversion_final.glm
#gridlabd test_json_conversion_final.glm
#exec diff -wq waterheater_1.csv waterheater_2.csv
//#on_exit -1 rm -f ../test_json_conversion_{final,save}.{glm,json} ../waterheater_[12].csv
//#on_exit 0 rm -f ../test_json_conversion_{final,save}.{glm,json} ../waterheater_[12].csv

#else // simulation run specifies SAVEFILE

#define STARTTIME="2020-01-01 00:00:00 EST"
#define STOPTIME="2020-01-02 00:00:00 EST"

clock {
	timezone EST+5EDT;
	starttime ${STARTTIME};
	stoptime ${STOPTIME};
}

module powerflow;
module climate;
module residential;
module tape 
{
	csv_data_only 1;
}

#set randomseed=7

class waterheater
{
	loadshape wh_shape;
	char1024 supernode_name;
}

schedule waterheater_demand_prob 
{
	* 5-21 * * * 0.99;
	* 22-4 * * * 0.01;
}

#weather get WA-Yakima_Air_Terminal.tmy3
object climate 
{
  name TX_Houston;
  tmyfile "WA-Yakima_Air_Terminal.tmy3";
  interpolate QUADRATIC;
}

object triplex_meter
{
	name "meter_1";
	nominal_voltage "120 V";
	phases "AS";
}

object house 
{
	name "house_1";
	parent "meter_1";
	floor_area random.triangle(1000,1500);
	cooling_setpoint 76 degF;
	heating_setpoint 65 degF;
	hvac_power_factor 0.75;
}

object waterheater 
{
	name "waterheater_1";
	parent "house_1";
	wh_shape "type: analog; schedule: waterheater_demand_prob; power: 300 W";
	tank_setpoint 130;
	water_demand this.wh_shape*0.165; //scaling issue with loadshape/schedules
	heating_element_capacity 4500 W;
	tank_height 4 ft;
	tank_diameter 2 ft;
	power_factor 1.0;
	power_fraction 0.0;
	current_fraction 0.0;
}

object recorder 
{
	parent "waterheater_1";
	file "${SAVEFILE}";
	property water_demand;
	interval 60;
}

#endif // SAVEFILE
