clock {
    timezone US/CA/Los Angeles;
    starttime '2018-01-01 00:00:00 PST';
    stoptime '2019-01-01 00:00:00 PST';
}

module tape;
object recorder {
    parent main;
    file test_ceus_converter.csv;
    property measured_power_A,measured_power_B,measured_power_C,measured_real_power,measured_reactive_power;
    interval 1h;
};

module powerflow;
object meter {
    name main;
    bustype SWING;
    nominal_voltage 120.0;
    phases ABCN;
}

#warning last object = ${object.find class=meter}
module commercial;
