module powerflow
{
	violation_record "test_watch_node_voltage.csv";
}

object node {
	bustype SWING;
	nominal_voltage 2400;
	phases ABC;
	voltage_A 2400;
	voltage_B 2440;
	voltage_C 2550;
}

#ifexist ../test_watch_node_voltage.csv
#on_exit 0 diff -q ../test_watch_node_voltage.csv test_watch_node_voltage.csv >gridlabd.diff
#endif
