module powerflow
{
	violation_record "test_node_voltage_violation.csv";
}

object node {
	bustype SWING;
	nominal_voltage 2400;
	phases ABC;
	voltage_A 2400;
	voltage_B 2440;
	voltage_C 2550;
}

#ifexist ../test_node_voltage_violation.csv
#on_exit 0 diff -q ../test_node_voltage_violation.csv test_node_voltage_violation.csv >gridlabd.diff
#endif
