#set suppress_repeat_messages=FALSE

clock {
	starttime '2020-01-01 00:00:00';
	stoptime '2021-01-01 00:00:00';
}

///////////////////////////////////////
// weather model
///////////////////////////////////////

module climate;
#weather get CA-Chino_Airport.tmy3
object climate {
	name weather;
	tmyfile "CA-Chino_Airport.tmy3";
}

///////////////////////////////////////
// pole model
///////////////////////////////////////
module powerflow;

object pole_configuration {
	name "WOOD-C-45/5";
	pole_type WOOD;
	pole_length 45 ft;
	pole_depth 4.5 ft;
	ground_diameter (32.5/3.14);
	top_diameter (19/3.14);
	fiber_strength 8000 psi;
	repair_time 1 h;
}

object pole {
    name pole1;
    weather weather;
    configuration "WOOD-C-45/5";
    tilt_angle 5 deg;
    tilt_direction 270;
    install_year 1990;
};

object pole {
	name pole2;
	weather weather;
	configuration "WOOD-C-45/5";
	tilt_angle 8 deg;
	tilt_direction 270;
	install_year 2000;
}

///////////////////////////////////////
// recorder model
///////////////////////////////////////

module tape
{
    csv_header_type NAME;
}
object multi_recorder {
	interval 3600;
	property "weather:wind_speed,pole1:pole_stress,pole1:susceptibility, pole1:total_moment, pole1:resisting_moment, pole2:pole_stress,pole2:susceptibility, pole1:critical_wind_speed, pole2:critical_wind_speed, pole2:total_moment, pole2:resisting_moment";
	file test_pole.csv;
}
