module powerflow;
module tape
{
    csv_header_type NAME;
}
clock
{
    timezone "PST+8PDT";
    starttime "2022-01-01 00:00:00 PST";
    stoptime "2023-01-01 00:00:00 PST";
}
object industrial
{
    nominal_voltage 12.47 kV;
    phases ABCD;
    industry_code "MECS_313";
    P0 10 MW;
    schedule "1-12,0-4,12-23,1,0.5,0.5,0.5,0.5,0.5,0.5,0.99";
    schedule "1-12,0-4,0-11,1.0,0.95";
    schedule "1-12,5-6,0-11,0.1";
    object recorder
    {
        file ${modelname/.glm/.csv};
        property "measured_real_power[MW],measured_reactive_power[MVAr]";
        interval 1h;
        line_units NONE;
    };
}

#set savefile=test_industrial.json

#ifexist "../${modelname/.glm/.csv}"
#on_exit 0 diff ../${modelname/.glm/.csv} ${modelname/.glm/.csv} > gridlabd.diff
#else
#on_exit 0 gridlabd plot -i=${modelname/.glm/.csv} --plot:y='measured_real_power[MW],measured_reactive_power[MVAr]' --plot:grid=True --plot:legend=True --show
#endif
