// test_industial.glm
// Copyright (C) 2020, Regents of the Leland Stanford Junior University

#set savefile=test_industrial.json

clock
{
	timezone "US/CA/San Francisco";
	starttime "2020-01-01 00:00:00 PST";
	stoptime "2021-01-01 00:00:00 PST";
}

module tape;
module powerflow;

object load
{
	phases ABCD;
	nominal_voltage 12.47 kV;
	name "test";
	object recorder 
	{
		file "test_industrial.csv";
		property constant_power_A,constant_power_B,constant_power_C,constant_current_A,constant_current_B,constant_current_C,constant_impedance_A,constant_impedance_B,constant_impedance_C;
		interval 1h;
	};
}

module industrial
{
	naics_data_file "../naics_data_file.csv";
}

object industrial
{
	parent "test";
	naics_code 32511; // bakery
	total_power 1.0 MW;
}