// test_industial.glm
// Copyright (C) 2020, Regents of the Leland Stanford Junior University

clock
{
	timezone "US/CA/San Francisco";
	starttime "2020-01-01 00:00:00 PST";
	stoptime "2021-01-01 00:00:00 PST";
}

module powerflow;

object load
{
	phases ABCD;
	nominal_voltage 12.47 kV;
	name "test";
}

module industrial
{
	naics_data_file "../naics_data_file.csv";
}

object industrial
{
	parent "test";
	naics_code 32511; // bakery
}