// Automatically generated by https://github.com/openfido/cyme-extract

// 
// Application information
// 
#define APP_COMMAND=/usr/local/share/openfido/cyme-extract/postproc/write_glm.py
#define APP_VERSION=0

// 
// Git information
// 
#define GIT_PROJECT=https://github.com/openfido/cyme-extract
#define GIT_COMMIT=318f2097e8428672e97305ea4b18f44f6661d792
#define GIT_BRANCH=main

// 
// GLM creation context
// 
#define GLM_PATHNAME=/Users/fxie2/github/gridlabd/gldcore/converters/autotest/IEEE-123-cyme.glm
#define GLM_CREATED=2021-09-08T19:27:16.741436
#define GLM_USER=fxie2
#define GLM_WORKDIR=/Users/fxie2/github/gridlabd/gldcore/converters/autotest/test_mdb_cyme2glm_ieee123
#define GLM_LANG=en_US.UTF-8

// 
// CYME model information
// 
#define CYME_MDBNAME=IEEE-123-cyme
#define CYME_VERSION=-1
#define CYME_CREATED=2020-03-27T12:07:34
#define CYME_MODIFIED=2020-03-27T12:07:34
#define CYME_LOADFACTOR=1.0
#define CYME_NETWORKID=IEEE-123-NODES

// 
// Settings from 'config.csv'
// 
#define GLM_NOMINAL_VOLTAGE=2.40178 kV

// 
// default clock settings
// 
clock
{
	timezone "PST+8PDT";
	starttime "2020-01-01T00:00:00+08:00";
	stoptime "2020-01-01T00:05:00+08:00";
}

// 
// Modules
// 
module powerflow
{
	solver_method "NR";
}

// 
// Objects
// 
object node
{
	name "ND_1";
	phases "ABCN";
	nominal_voltage "${GLM_NOMINAL_VOLTAGE}";
	bustype "PQ";
}
object node
{
	name "ND_10";
	phases "AN";
	nominal_voltage "${GLM_NOMINAL_VOLTAGE}";
	bustype "PQ";
}
object node
{
	name "ND_100";
	phases "ABCN";
	nominal_voltage "${GLM_NOMINAL_VOLTAGE}";
	bustype "PQ";
}
object node
{
	name "ND_101";
	phases "ABCN";
	nominal_voltage "${GLM_NOMINAL_VOLTAGE}";
	bustype "PQ";
}
object node
{
	name "ND_102";
	phases "CN";
	nominal_voltage "${GLM_NOMINAL_VOLTAGE}";
	bustype "PQ";
}
object node
{
	name "ND_103";
	phases "CN";
	nominal_voltage "${GLM_NOMINAL_VOLTAGE}";
	bustype "PQ";
}
object node
{
	name "ND_104";
	phases "CN";
	nominal_voltage "${GLM_NOMINAL_VOLTAGE}";
	bustype "PQ";
}
object node
{
	name "ND_105";
	phases "ABCN";
	nominal_voltage "${GLM_NOMINAL_VOLTAGE}";
	bustype "PQ";
}
object node
{
	name "ND_106";
	phases "BN";
	nominal_voltage "${GLM_NOMINAL_VOLTAGE}";
	bustype "PQ";
}
object node
{
	name "ND_107";
	phases "BN";
	nominal_voltage "${GLM_NOMINAL_VOLTAGE}";
	bustype "PQ";
}
object node
{
	name "ND_108";
	phases "ABCN";
	nominal_voltage "${GLM_NOMINAL_VOLTAGE}";
	bustype "PQ";
}
object node
{
	name "ND_109";
	phases "AN";
	nominal_voltage "${GLM_NOMINAL_VOLTAGE}";
	bustype "PQ";
}
object node
{
	name "ND_110";
	phases "AN";
	nominal_voltage "${GLM_NOMINAL_VOLTAGE}";
	bustype "PQ";
}
object node
{
	name "ND_111";
	phases "AN";
	nominal_voltage "${GLM_NOMINAL_VOLTAGE}";
	bustype "PQ";
}
object node
{
	name "ND_112";
	phases "AN";
	nominal_voltage "${GLM_NOMINAL_VOLTAGE}";
	bustype "PQ";
}
object node
{
	name "ND_113";
	phases "AN";
	nominal_voltage "${GLM_NOMINAL_VOLTAGE}";
	bustype "PQ";
}
object node
{
	name "ND_114";
	phases "AN";
	nominal_voltage "${GLM_NOMINAL_VOLTAGE}";
	bustype "PQ";
}
object node
{
	name "ND_12";
	phases "BN";
	nominal_voltage "${GLM_NOMINAL_VOLTAGE}";
	bustype "PQ";
}
object node
{
	name "ND_13";
	phases "ABCN";
	nominal_voltage "${GLM_NOMINAL_VOLTAGE}";
	bustype "PQ";
}
object node
{
	name "ND_135";
	phases "ABCN";
	nominal_voltage "${GLM_NOMINAL_VOLTAGE}";
	bustype "PQ";
}
object node
{
	name "ND_14";
	phases "AN";
	nominal_voltage "${GLM_NOMINAL_VOLTAGE}";
	bustype "PQ";
}
object node
{
	name "ND_149";
	phases "ABCN";
	nominal_voltage "${GLM_NOMINAL_VOLTAGE}";
	bustype "PQ";
}
object node
{
	name "ND_15";
	phases "CN";
	nominal_voltage "${GLM_NOMINAL_VOLTAGE}";
	bustype "PQ";
}
object node
{
	name "ND_151";
	phases "ABCN";
	nominal_voltage "${GLM_NOMINAL_VOLTAGE}";
	bustype "PQ";
}
object node
{
	name "ND_152";
	phases "ABCN";
	nominal_voltage "${GLM_NOMINAL_VOLTAGE}";
	bustype "PQ";
}
object node
{
	name "ND_16";
	phases "CN";
	nominal_voltage "${GLM_NOMINAL_VOLTAGE}";
	bustype "PQ";
}
object node
{
	name "ND_160";
	phases "ABCN";
	nominal_voltage "${GLM_NOMINAL_VOLTAGE}";
	bustype "PQ";
}
object node
{
	name "ND_17";
	phases "CN";
	nominal_voltage "${GLM_NOMINAL_VOLTAGE}";
	bustype "PQ";
}
object node
{
	name "ND_18";
	phases "ABCN";
	nominal_voltage "${GLM_NOMINAL_VOLTAGE}";
	bustype "PQ";
}
object node
{
	name "ND_19";
	phases "AN";
	nominal_voltage "${GLM_NOMINAL_VOLTAGE}";
	bustype "PQ";
}
object node
{
	name "ND_197";
	phases "ABCN";
	nominal_voltage "${GLM_NOMINAL_VOLTAGE}";
	bustype "PQ";
}
object node
{
	name "ND_2";
	phases "BN";
	nominal_voltage "${GLM_NOMINAL_VOLTAGE}";
	bustype "PQ";
}
object node
{
	name "ND_20";
	phases "AN";
	nominal_voltage "${GLM_NOMINAL_VOLTAGE}";
	bustype "PQ";
}
object node
{
	name "ND_21";
	phases "ABCN";
	nominal_voltage "${GLM_NOMINAL_VOLTAGE}";
	bustype "PQ";
}
object node
{
	name "ND_22";
	phases "BN";
	nominal_voltage "${GLM_NOMINAL_VOLTAGE}";
	bustype "PQ";
}
object node
{
	name "ND_228";
	phases "ABCN";
	nominal_voltage "${GLM_NOMINAL_VOLTAGE}";
	bustype "PQ";
}
object node
{
	name "ND_23";
	phases "ABCN";
	nominal_voltage "${GLM_NOMINAL_VOLTAGE}";
	bustype "PQ";
}
object node
{
	name "ND_24";
	phases "CN";
	nominal_voltage "${GLM_NOMINAL_VOLTAGE}";
	bustype "PQ";
}
object node
{
	name "ND_25";
	phases "ABCN";
	nominal_voltage "${GLM_NOMINAL_VOLTAGE}";
	bustype "PQ";
}
object node
{
	name "ND_250";
	phases "ABCN";
	nominal_voltage "${GLM_NOMINAL_VOLTAGE}";
	bustype "PQ";
}
object node
{
	name "ND_251";
	phases "ABCN";
	nominal_voltage "${GLM_NOMINAL_VOLTAGE}";
	bustype "PQ";
}
object node
{
	name "ND_26";
	phases "ACN";
	nominal_voltage "${GLM_NOMINAL_VOLTAGE}";
	bustype "PQ";
}
object node
{
	name "ND_27";
	phases "ACN";
	nominal_voltage "${GLM_NOMINAL_VOLTAGE}";
	bustype "PQ";
}
object node
{
	name "ND_28";
	phases "ABCN";
	nominal_voltage "${GLM_NOMINAL_VOLTAGE}";
	bustype "PQ";
}
object node
{
	name "ND_29";
	phases "ABCN";
	nominal_voltage "${GLM_NOMINAL_VOLTAGE}";
	bustype "PQ";
}
object node
{
	name "ND_3";
	phases "CN";
	nominal_voltage "${GLM_NOMINAL_VOLTAGE}";
	bustype "PQ";
}
object node
{
	name "ND_30";
	phases "ABCN";
	nominal_voltage "${GLM_NOMINAL_VOLTAGE}";
	bustype "PQ";
}
object node
{
	name "ND_300";
	phases "ABCN";
	nominal_voltage "${GLM_NOMINAL_VOLTAGE}";
	bustype "PQ";
}
object node
{
	name "ND_31";
	phases "CN";
	nominal_voltage "${GLM_NOMINAL_VOLTAGE}";
	bustype "PQ";
}
object node
{
	name "ND_32";
	phases "CN";
	nominal_voltage "${GLM_NOMINAL_VOLTAGE}";
	bustype "PQ";
}
object node
{
	name "ND_34";
	phases "CN";
	nominal_voltage "${GLM_NOMINAL_VOLTAGE}";
	bustype "PQ";
}
object node
{
	name "ND_35";
	phases "ABCN";
	nominal_voltage "${GLM_NOMINAL_VOLTAGE}";
	bustype "PQ";
}
object node
{
	name "ND_36";
	phases "ABN";
	nominal_voltage "${GLM_NOMINAL_VOLTAGE}";
	bustype "PQ";
}
object node
{
	name "ND_37";
	phases "AN";
	nominal_voltage "${GLM_NOMINAL_VOLTAGE}";
	bustype "PQ";
}
object node
{
	name "ND_38";
	phases "BN";
	nominal_voltage "${GLM_NOMINAL_VOLTAGE}";
	bustype "PQ";
}
object node
{
	name "ND_39";
	phases "BN";
	nominal_voltage "${GLM_NOMINAL_VOLTAGE}";
	bustype "PQ";
}
object node
{
	name "ND_4";
	phases "CN";
	nominal_voltage "${GLM_NOMINAL_VOLTAGE}";
	bustype "PQ";
}
object node
{
	name "ND_40";
	phases "ABCN";
	nominal_voltage "${GLM_NOMINAL_VOLTAGE}";
	bustype "PQ";
}
object node
{
	name "ND_41";
	phases "CN";
	nominal_voltage "${GLM_NOMINAL_VOLTAGE}";
	bustype "PQ";
}
object node
{
	name "ND_42";
	phases "ABCN";
	nominal_voltage "${GLM_NOMINAL_VOLTAGE}";
	bustype "PQ";
}
object node
{
	name "ND_43";
	phases "BN";
	nominal_voltage "${GLM_NOMINAL_VOLTAGE}";
	bustype "PQ";
}
object node
{
	name "ND_44";
	phases "ABCN";
	nominal_voltage "${GLM_NOMINAL_VOLTAGE}";
	bustype "PQ";
}
object node
{
	name "ND_45";
	phases "AN";
	nominal_voltage "${GLM_NOMINAL_VOLTAGE}";
	bustype "PQ";
}
object node
{
	name "ND_450";
	phases "ABCN";
	nominal_voltage "${GLM_NOMINAL_VOLTAGE}";
	bustype "PQ";
}
object node
{
	name "ND_450_451";
	phases "ABCN";
	nominal_voltage "${GLM_NOMINAL_VOLTAGE}";
	bustype "PQ";
}
object node
{
	name "ND_46";
	phases "AN";
	nominal_voltage "${GLM_NOMINAL_VOLTAGE}";
	bustype "PQ";
}
object node
{
	name "ND_47";
	phases "ABCN";
	nominal_voltage "${GLM_NOMINAL_VOLTAGE}";
	bustype "PQ";
}
object node
{
	name "ND_48";
	phases "ABCN";
	nominal_voltage "${GLM_NOMINAL_VOLTAGE}";
	bustype "PQ";
}
object node
{
	name "ND_49";
	phases "ABCN";
	nominal_voltage "${GLM_NOMINAL_VOLTAGE}";
	bustype "PQ";
}
object node
{
	name "ND_5";
	phases "CN";
	nominal_voltage "${GLM_NOMINAL_VOLTAGE}";
	bustype "PQ";
}
object node
{
	name "ND_50";
	phases "ABCN";
	nominal_voltage "${GLM_NOMINAL_VOLTAGE}";
	bustype "PQ";
}
object node
{
	name "ND_51";
	phases "ABCN";
	nominal_voltage "${GLM_NOMINAL_VOLTAGE}";
	bustype "PQ";
}
object node
{
	name "ND_52";
	phases "ABCN";
	nominal_voltage "${GLM_NOMINAL_VOLTAGE}";
	bustype "PQ";
}
object node
{
	name "ND_53";
	phases "ABCN";
	nominal_voltage "${GLM_NOMINAL_VOLTAGE}";
	bustype "PQ";
}
object node
{
	name "ND_54";
	phases "ABCN";
	nominal_voltage "${GLM_NOMINAL_VOLTAGE}";
	bustype "PQ";
}
object node
{
	name "ND_55";
	phases "ABCN";
	nominal_voltage "${GLM_NOMINAL_VOLTAGE}";
	bustype "PQ";
}
object node
{
	name "ND_56";
	phases "ABCN";
	nominal_voltage "${GLM_NOMINAL_VOLTAGE}";
	bustype "PQ";
}
object node
{
	name "ND_57";
	phases "ABCN";
	nominal_voltage "${GLM_NOMINAL_VOLTAGE}";
	bustype "PQ";
}
object node
{
	name "ND_58";
	phases "BN";
	nominal_voltage "${GLM_NOMINAL_VOLTAGE}";
	bustype "PQ";
}
object node
{
	name "ND_59";
	phases "BN";
	nominal_voltage "${GLM_NOMINAL_VOLTAGE}";
	bustype "PQ";
}
object node
{
	name "ND_6";
	phases "CN";
	nominal_voltage "${GLM_NOMINAL_VOLTAGE}";
	bustype "PQ";
}
object node
{
	name "ND_60";
	phases "ABCN";
	nominal_voltage "${GLM_NOMINAL_VOLTAGE}";
	bustype "PQ";
}
object node
{
	name "ND_61";
	phases "ABCN";
	nominal_voltage "${GLM_NOMINAL_VOLTAGE}";
	bustype "PQ";
}
object node
{
	name "ND_610";
	phases "ABCN";
	nominal_voltage "${GLM_NOMINAL_VOLTAGE}";
	bustype "PQ";
}
object node
{
	name "ND_62";
	phases "ABCN";
	nominal_voltage "${GLM_NOMINAL_VOLTAGE}";
	bustype "PQ";
}
object node
{
	name "ND_63";
	phases "ABCN";
	nominal_voltage "${GLM_NOMINAL_VOLTAGE}";
	bustype "PQ";
}
object node
{
	name "ND_64";
	phases "ABCN";
	nominal_voltage "${GLM_NOMINAL_VOLTAGE}";
	bustype "PQ";
}
object node
{
	name "ND_65";
	phases "ABCN";
	nominal_voltage "${GLM_NOMINAL_VOLTAGE}";
	bustype "PQ";
}
object node
{
	name "ND_66";
	phases "ABCN";
	nominal_voltage "${GLM_NOMINAL_VOLTAGE}";
	bustype "PQ";
}
object node
{
	name "ND_67";
	phases "ABCN";
	nominal_voltage "${GLM_NOMINAL_VOLTAGE}";
	bustype "PQ";
}
object node
{
	name "ND_68";
	phases "AN";
	nominal_voltage "${GLM_NOMINAL_VOLTAGE}";
	bustype "PQ";
}
object node
{
	name "ND_69";
	phases "AN";
	nominal_voltage "${GLM_NOMINAL_VOLTAGE}";
	bustype "PQ";
}
object node
{
	name "ND_7";
	phases "ABCN";
	nominal_voltage "${GLM_NOMINAL_VOLTAGE}";
	bustype "PQ";
}
object node
{
	name "ND_70";
	phases "AN";
	nominal_voltage "${GLM_NOMINAL_VOLTAGE}";
	bustype "PQ";
}
object node
{
	name "ND_71";
	phases "AN";
	nominal_voltage "${GLM_NOMINAL_VOLTAGE}";
	bustype "PQ";
}
object node
{
	name "ND_72";
	phases "ABCN";
	nominal_voltage "${GLM_NOMINAL_VOLTAGE}";
	bustype "PQ";
}
object node
{
	name "ND_73";
	phases "CN";
	nominal_voltage "${GLM_NOMINAL_VOLTAGE}";
	bustype "PQ";
}
object node
{
	name "ND_74";
	phases "CN";
	nominal_voltage "${GLM_NOMINAL_VOLTAGE}";
	bustype "PQ";
}
object node
{
	name "ND_75";
	phases "CN";
	nominal_voltage "${GLM_NOMINAL_VOLTAGE}";
	bustype "PQ";
}
object node
{
	name "ND_76";
	phases "ABCN";
	nominal_voltage "${GLM_NOMINAL_VOLTAGE}";
	bustype "PQ";
}
object node
{
	name "ND_77";
	phases "ABCN";
	nominal_voltage "${GLM_NOMINAL_VOLTAGE}";
	bustype "PQ";
}
object node
{
	name "ND_78";
	phases "ABCN";
	nominal_voltage "${GLM_NOMINAL_VOLTAGE}";
	bustype "PQ";
}
object node
{
	name "ND_79";
	phases "ABCN";
	nominal_voltage "${GLM_NOMINAL_VOLTAGE}";
	bustype "PQ";
}
object node
{
	name "ND_8";
	phases "ABCN";
	nominal_voltage "${GLM_NOMINAL_VOLTAGE}";
	bustype "PQ";
}
object node
{
	name "ND_80";
	phases "ABCN";
	nominal_voltage "${GLM_NOMINAL_VOLTAGE}";
	bustype "PQ";
}
object node
{
	name "ND_81";
	phases "ABCN";
	nominal_voltage "${GLM_NOMINAL_VOLTAGE}";
	bustype "PQ";
}
object node
{
	name "ND_82";
	phases "ABCN";
	nominal_voltage "${GLM_NOMINAL_VOLTAGE}";
	bustype "PQ";
}
object node
{
	name "ND_83";
	phases "ABCN";
	nominal_voltage "${GLM_NOMINAL_VOLTAGE}";
	bustype "PQ";
}
object node
{
	name "ND_84";
	phases "CN";
	nominal_voltage "${GLM_NOMINAL_VOLTAGE}";
	bustype "PQ";
}
object node
{
	name "ND_85";
	phases "CN";
	nominal_voltage "${GLM_NOMINAL_VOLTAGE}";
	bustype "PQ";
}
object node
{
	name "ND_86";
	phases "ABCN";
	nominal_voltage "${GLM_NOMINAL_VOLTAGE}";
	bustype "PQ";
}
object node
{
	name "ND_87";
	phases "ABCN";
	nominal_voltage "${GLM_NOMINAL_VOLTAGE}";
	bustype "PQ";
}
object node
{
	name "ND_88";
	phases "AN";
	nominal_voltage "${GLM_NOMINAL_VOLTAGE}";
	bustype "PQ";
}
object node
{
	name "ND_89";
	phases "ABCN";
	nominal_voltage "${GLM_NOMINAL_VOLTAGE}";
	bustype "PQ";
}
object node
{
	name "ND_9";
	phases "AN";
	nominal_voltage "${GLM_NOMINAL_VOLTAGE}";
	bustype "PQ";
}
object node
{
	name "ND_90";
	phases "BN";
	nominal_voltage "${GLM_NOMINAL_VOLTAGE}";
	bustype "PQ";
}
object node
{
	name "ND_91";
	phases "ABCN";
	nominal_voltage "${GLM_NOMINAL_VOLTAGE}";
	bustype "PQ";
}
object node
{
	name "ND_92";
	phases "CN";
	nominal_voltage "${GLM_NOMINAL_VOLTAGE}";
	bustype "PQ";
}
object node
{
	name "ND_93";
	phases "ABCN";
	nominal_voltage "${GLM_NOMINAL_VOLTAGE}";
	bustype "PQ";
}
object node
{
	name "ND_94";
	phases "ABCN";
	nominal_voltage "${GLM_NOMINAL_VOLTAGE}";
	bustype "PQ";
}
object node
{
	name "ND_95";
	phases "ABCN";
	nominal_voltage "${GLM_NOMINAL_VOLTAGE}";
	bustype "PQ";
}
object node
{
	name "ND_96";
	phases "BN";
	nominal_voltage "${GLM_NOMINAL_VOLTAGE}";
	bustype "PQ";
}
object node
{
	name "ND_97";
	phases "ABCN";
	nominal_voltage "${GLM_NOMINAL_VOLTAGE}";
	bustype "PQ";
}
object node
{
	name "ND_98";
	phases "ABCN";
	nominal_voltage "${GLM_NOMINAL_VOLTAGE}";
	bustype "PQ";
}
object node
{
	name "ND_99";
	phases "ABCN";
	nominal_voltage "${GLM_NOMINAL_VOLTAGE}";
	bustype "PQ";
}
object overhead_line_conductor
{
	name "OC_336_400";
	geometric_mean_radius "0.74 cm";
	resistance "0.17293 Ohm/km";
	diameter "1.83 cm";
	rating.summer.continuous "530.0 A";
	rating.winter.continuous "530.0 A";
	rating.summer.emergency "530.0 A";
	rating.winter.emergency "530.0 A";
}
object overhead_line_conductor
{
	name "OC_4/0";
	geometric_mean_radius "0.25 cm";
	resistance "0.36785 Ohm/km";
	diameter "1.43 cm";
	rating.summer.continuous "340.0 A";
	rating.winter.continuous "340.0 A";
	rating.summer.emergency "340.0 A";
	rating.winter.emergency "340.0 A";
}
object line_spacing
{
	name "LG_500";
	distance_AB "0.76 m";
	distance_AC "2.13 m";
	distance_BC "1.37 m";
	distance_AN "1.72 m";
	distance_BN "1.30 m";
	distance_CN "1.52 m";
	distance_AE "8.53 m";
	distance_BE "8.53 m";
	distance_CE "8.53 m";
	distance_NE "7.32 m";
}
object line_configuration
{
	name "LC_336_400_336_400_336_400_4/0_500";
	conductor_A "OC_336_400";
	conductor_B "OC_336_400";
	conductor_C "OC_336_400";
	conductor_N "OC_4/0";
	spacing "LG_500";
}
object overhead_line
{
	name "OL_LK_CONFIG__51_151";
	phases "ABC";
	nominal_voltage "${GLM_NOMINAL_VOLTAGE}";
	from "ND_51";
	to "ND_151";
	length "0.01 m";
	configuration "LC_336_400_336_400_336_400_4/0_500";
}
object overhead_line
{
	name "OL_LK_CONFIG_1_1_7";
	phases "ABC";
	nominal_voltage "${GLM_NOMINAL_VOLTAGE}";
	from "ND_1";
	to "ND_7";
	length "91.44 m";
	configuration "LC_336_400_336_400_336_400_4/0_500";
}
object overhead_line
{
	name "OL_LK_CONFIG_1_149_1";
	phases "ABC";
	nominal_voltage "${GLM_NOMINAL_VOLTAGE}";
	from "ND_149";
	to "ND_1";
	length "121.92 m";
	configuration "LC_336_400_336_400_336_400_4/0_500";
}
object overhead_line
{
	name "OL_LK_CONFIG_1_152_52";
	phases "ABC";
	nominal_voltage "${GLM_NOMINAL_VOLTAGE}";
	from "ND_152";
	to "ND_52";
	length "121.92 m";
	configuration "LC_336_400_336_400_336_400_4/0_500";
}
object overhead_line
{
	name "OL_LK_CONFIG_1_35_40";
	phases "ABC";
	nominal_voltage "${GLM_NOMINAL_VOLTAGE}";
	from "ND_35";
	to "ND_40";
	length "76.20 m";
	configuration "LC_336_400_336_400_336_400_4/0_500";
}
object overhead_line
{
	name "OL_LK_CONFIG_1_40_42";
	phases "ABC";
	nominal_voltage "${GLM_NOMINAL_VOLTAGE}";
	from "ND_40";
	to "ND_42";
	length "76.20 m";
	configuration "LC_336_400_336_400_336_400_4/0_500";
}
object overhead_line
{
	name "OL_LK_CONFIG_1_42_44";
	phases "ABC";
	nominal_voltage "${GLM_NOMINAL_VOLTAGE}";
	from "ND_42";
	to "ND_44";
	length "60.96 m";
	configuration "LC_336_400_336_400_336_400_4/0_500";
}
object overhead_line
{
	name "OL_LK_CONFIG_1_44_47";
	phases "ABC";
	nominal_voltage "${GLM_NOMINAL_VOLTAGE}";
	from "ND_44";
	to "ND_47";
	length "76.20 m";
	configuration "LC_336_400_336_400_336_400_4/0_500";
}
object overhead_line
{
	name "OL_LK_CONFIG_1_52_53";
	phases "ABC";
	nominal_voltage "${GLM_NOMINAL_VOLTAGE}";
	from "ND_52";
	to "ND_53";
	length "60.96 m";
	configuration "LC_336_400_336_400_336_400_4/0_500";
}
object overhead_line
{
	name "OL_LK_CONFIG_1_53_54";
	phases "ABC";
	nominal_voltage "${GLM_NOMINAL_VOLTAGE}";
	from "ND_53";
	to "ND_54";
	length "38.10 m";
	configuration "LC_336_400_336_400_336_400_4/0_500";
}
object overhead_line
{
	name "OL_LK_CONFIG_1_54_55";
	phases "ABC";
	nominal_voltage "${GLM_NOMINAL_VOLTAGE}";
	from "ND_54";
	to "ND_55";
	length "83.82 m";
	configuration "LC_336_400_336_400_336_400_4/0_500";
}
object overhead_line
{
	name "OL_LK_CONFIG_1_55_56";
	phases "ABC";
	nominal_voltage "${GLM_NOMINAL_VOLTAGE}";
	from "ND_55";
	to "ND_56";
	length "83.82 m";
	configuration "LC_336_400_336_400_336_400_4/0_500";
}
object overhead_line
{
	name "OL_LK_CONFIG_1_7_8";
	phases "ABC";
	nominal_voltage "${GLM_NOMINAL_VOLTAGE}";
	from "ND_7";
	to "ND_8";
	length "60.96 m";
	configuration "LC_336_400_336_400_336_400_4/0_500";
}
object overhead_line
{
	name "OL_LK_CONFIG_1_8_13";
	phases "ABC";
	nominal_voltage "${GLM_NOMINAL_VOLTAGE}";
	from "ND_8";
	to "ND_13";
	length "91.44 m";
	configuration "LC_336_400_336_400_336_400_4/0_500";
}
object overhead_line_conductor
{
	name "OC_NONE";
	geometric_mean_radius "0.00 cm";
	resistance "0.00000 Ohm/km";
	diameter "0.00 cm";
	rating.summer.continuous "1000.0 A";
	rating.winter.continuous "1000.0 A";
	rating.summer.emergency "1000.0 A";
	rating.winter.emergency "1000.0 A";
}
object overhead_line_conductor
{
	name "OC_1/0";
	geometric_mean_radius "0.14 cm";
	resistance "0.69594 Ohm/km";
	diameter "1.01 cm";
	rating.summer.continuous "230.0 A";
	rating.winter.continuous "230.0 A";
	rating.summer.emergency "230.0 A";
	rating.winter.emergency "230.0 A";
}
object line_spacing
{
	name "LG_510";
	distance_AB "8.84 m";
	distance_AC "8.84 m";
	distance_BC "0.00 m";
	distance_AN "1.53 m";
	distance_BN "7.32 m";
	distance_CN "7.32 m";
	distance_AE "8.84 m";
	distance_BE "0.00 m";
	distance_CE "0.00 m";
	distance_NE "7.32 m";
}
object line_configuration
{
	name "LC_NONE_1/0_NONE_1/0_510";
	conductor_A "OC_NONE";
	conductor_B "OC_1/0";
	conductor_C "OC_NONE";
	conductor_N "OC_1/0";
	spacing "LG_510";
}
object overhead_line
{
	name "OL_LK_CONFIG_10_1_2";
	phases "B";
	nominal_voltage "${GLM_NOMINAL_VOLTAGE}";
	from "ND_1";
	to "ND_2";
	length "53.34 m";
	configuration "LC_NONE_1/0_NONE_1/0_510";
}
object overhead_line
{
	name "OL_LK_CONFIG_10_105_106";
	phases "B";
	nominal_voltage "${GLM_NOMINAL_VOLTAGE}";
	from "ND_105";
	to "ND_106";
	length "68.58 m";
	configuration "LC_NONE_1/0_NONE_1/0_510";
}
object overhead_line
{
	name "OL_LK_CONFIG_10_106_107";
	phases "B";
	nominal_voltage "${GLM_NOMINAL_VOLTAGE}";
	from "ND_106";
	to "ND_107";
	length "175.26 m";
	configuration "LC_NONE_1/0_NONE_1/0_510";
}
object overhead_line
{
	name "OL_LK_CONFIG_10_21_22";
	phases "B";
	nominal_voltage "${GLM_NOMINAL_VOLTAGE}";
	from "ND_21";
	to "ND_22";
	length "160.02 m";
	configuration "LC_NONE_1/0_NONE_1/0_510";
}
object overhead_line
{
	name "OL_LK_CONFIG_10_36_38";
	phases "B";
	nominal_voltage "${GLM_NOMINAL_VOLTAGE}";
	from "ND_36";
	to "ND_38";
	length "76.20 m";
	configuration "LC_NONE_1/0_NONE_1/0_510";
}
object overhead_line
{
	name "OL_LK_CONFIG_10_38_39";
	phases "B";
	nominal_voltage "${GLM_NOMINAL_VOLTAGE}";
	from "ND_38";
	to "ND_39";
	length "99.06 m";
	configuration "LC_NONE_1/0_NONE_1/0_510";
}
object overhead_line
{
	name "OL_LK_CONFIG_10_42_43";
	phases "B";
	nominal_voltage "${GLM_NOMINAL_VOLTAGE}";
	from "ND_42";
	to "ND_43";
	length "152.40 m";
	configuration "LC_NONE_1/0_NONE_1/0_510";
}
object overhead_line
{
	name "OL_LK_CONFIG_10_57_58";
	phases "B";
	nominal_voltage "${GLM_NOMINAL_VOLTAGE}";
	from "ND_57";
	to "ND_58";
	length "76.20 m";
	configuration "LC_NONE_1/0_NONE_1/0_510";
}
object overhead_line
{
	name "OL_LK_CONFIG_10_58_59";
	phases "B";
	nominal_voltage "${GLM_NOMINAL_VOLTAGE}";
	from "ND_58";
	to "ND_59";
	length "76.20 m";
	configuration "LC_NONE_1/0_NONE_1/0_510";
}
object overhead_line
{
	name "OL_LK_CONFIG_10_8_12";
	phases "B";
	nominal_voltage "${GLM_NOMINAL_VOLTAGE}";
	from "ND_8";
	to "ND_12";
	length "68.58 m";
	configuration "LC_NONE_1/0_NONE_1/0_510";
}
object overhead_line
{
	name "OL_LK_CONFIG_10_89_90";
	phases "B";
	nominal_voltage "${GLM_NOMINAL_VOLTAGE}";
	from "ND_89";
	to "ND_90";
	length "68.58 m";
	configuration "LC_NONE_1/0_NONE_1/0_510";
}
object overhead_line
{
	name "OL_LK_CONFIG_10_95_96";
	phases "B";
	nominal_voltage "${GLM_NOMINAL_VOLTAGE}";
	from "ND_95";
	to "ND_96";
	length "60.96 m";
	configuration "LC_NONE_1/0_NONE_1/0_510";
}
object line_configuration
{
	name "LC_NONE_NONE_1/0_1/0_510";
	conductor_A "OC_NONE";
	conductor_B "OC_NONE";
	conductor_C "OC_1/0";
	conductor_N "OC_1/0";
	spacing "LG_510";
}
object overhead_line
{
	name "OL_LK_CONFIG_11_1_3";
	phases "C";
	nominal_voltage "${GLM_NOMINAL_VOLTAGE}";
	from "ND_1";
	to "ND_3";
	length "76.20 m";
	configuration "LC_NONE_NONE_1/0_1/0_510";
}
object overhead_line
{
	name "OL_LK_CONFIG_11_101_102";
	phases "C";
	nominal_voltage "${GLM_NOMINAL_VOLTAGE}";
	from "ND_101";
	to "ND_102";
	length "68.58 m";
	configuration "LC_NONE_NONE_1/0_1/0_510";
}
object overhead_line
{
	name "OL_LK_CONFIG_11_102_103";
	phases "C";
	nominal_voltage "${GLM_NOMINAL_VOLTAGE}";
	from "ND_102";
	to "ND_103";
	length "99.06 m";
	configuration "LC_NONE_NONE_1/0_1/0_510";
}
object overhead_line
{
	name "OL_LK_CONFIG_11_103_104";
	phases "C";
	nominal_voltage "${GLM_NOMINAL_VOLTAGE}";
	from "ND_103";
	to "ND_104";
	length "213.36 m";
	configuration "LC_NONE_NONE_1/0_1/0_510";
}
object overhead_line
{
	name "OL_LK_CONFIG_11_13_34";
	phases "C";
	nominal_voltage "${GLM_NOMINAL_VOLTAGE}";
	from "ND_13";
	to "ND_34";
	length "45.72 m";
	configuration "LC_NONE_NONE_1/0_1/0_510";
}
object overhead_line
{
	name "OL_LK_CONFIG_11_15_16";
	phases "C";
	nominal_voltage "${GLM_NOMINAL_VOLTAGE}";
	from "ND_15";
	to "ND_16";
	length "114.30 m";
	configuration "LC_NONE_NONE_1/0_1/0_510";
}
object overhead_line
{
	name "OL_LK_CONFIG_11_15_17";
	phases "C";
	nominal_voltage "${GLM_NOMINAL_VOLTAGE}";
	from "ND_15";
	to "ND_17";
	length "106.68 m";
	configuration "LC_NONE_NONE_1/0_1/0_510";
}
object overhead_line
{
	name "OL_LK_CONFIG_11_23_24";
	phases "C";
	nominal_voltage "${GLM_NOMINAL_VOLTAGE}";
	from "ND_23";
	to "ND_24";
	length "167.64 m";
	configuration "LC_NONE_NONE_1/0_1/0_510";
}
object overhead_line
{
	name "OL_LK_CONFIG_11_26_31";
	phases "C";
	nominal_voltage "${GLM_NOMINAL_VOLTAGE}";
	from "ND_26";
	to "ND_31";
	length "68.58 m";
	configuration "LC_NONE_NONE_1/0_1/0_510";
}
object overhead_line
{
	name "OL_LK_CONFIG_11_3_4";
	phases "C";
	nominal_voltage "${GLM_NOMINAL_VOLTAGE}";
	from "ND_3";
	to "ND_4";
	length "60.96 m";
	configuration "LC_NONE_NONE_1/0_1/0_510";
}
object overhead_line
{
	name "OL_LK_CONFIG_11_3_5";
	phases "C";
	nominal_voltage "${GLM_NOMINAL_VOLTAGE}";
	from "ND_3";
	to "ND_5";
	length "99.06 m";
	configuration "LC_NONE_NONE_1/0_1/0_510";
}
object overhead_line
{
	name "OL_LK_CONFIG_11_31_32";
	phases "C";
	nominal_voltage "${GLM_NOMINAL_VOLTAGE}";
	from "ND_31";
	to "ND_32";
	length "91.44 m";
	configuration "LC_NONE_NONE_1/0_1/0_510";
}
object overhead_line
{
	name "OL_LK_CONFIG_11_34_15";
	phases "C";
	nominal_voltage "${GLM_NOMINAL_VOLTAGE}";
	from "ND_34";
	to "ND_15";
	length "30.48 m";
	configuration "LC_NONE_NONE_1/0_1/0_510";
}
object overhead_line
{
	name "OL_LK_CONFIG_11_40_41";
	phases "C";
	nominal_voltage "${GLM_NOMINAL_VOLTAGE}";
	from "ND_40";
	to "ND_41";
	length "99.06 m";
	configuration "LC_NONE_NONE_1/0_1/0_510";
}
object overhead_line
{
	name "OL_LK_CONFIG_11_5_6";
	phases "C";
	nominal_voltage "${GLM_NOMINAL_VOLTAGE}";
	from "ND_5";
	to "ND_6";
	length "76.20 m";
	configuration "LC_NONE_NONE_1/0_1/0_510";
}
object overhead_line
{
	name "OL_LK_CONFIG_11_72_73";
	phases "C";
	nominal_voltage "${GLM_NOMINAL_VOLTAGE}";
	from "ND_72";
	to "ND_73";
	length "83.82 m";
	configuration "LC_NONE_NONE_1/0_1/0_510";
}
object overhead_line
{
	name "OL_LK_CONFIG_11_73_74";
	phases "C";
	nominal_voltage "${GLM_NOMINAL_VOLTAGE}";
	from "ND_73";
	to "ND_74";
	length "106.68 m";
	configuration "LC_NONE_NONE_1/0_1/0_510";
}
object overhead_line
{
	name "OL_LK_CONFIG_11_74_75";
	phases "C";
	nominal_voltage "${GLM_NOMINAL_VOLTAGE}";
	from "ND_74";
	to "ND_75";
	length "121.92 m";
	configuration "LC_NONE_NONE_1/0_1/0_510";
}
object overhead_line
{
	name "OL_LK_CONFIG_11_81_84";
	phases "C";
	nominal_voltage "${GLM_NOMINAL_VOLTAGE}";
	from "ND_81";
	to "ND_84";
	length "205.74 m";
	configuration "LC_NONE_NONE_1/0_1/0_510";
}
object overhead_line
{
	name "OL_LK_CONFIG_11_84_85";
	phases "C";
	nominal_voltage "${GLM_NOMINAL_VOLTAGE}";
	from "ND_84";
	to "ND_85";
	length "144.78 m";
	configuration "LC_NONE_NONE_1/0_1/0_510";
}
object overhead_line
{
	name "OL_LK_CONFIG_11_91_92";
	phases "C";
	nominal_voltage "${GLM_NOMINAL_VOLTAGE}";
	from "ND_91";
	to "ND_92";
	length "91.44 m";
	configuration "LC_NONE_NONE_1/0_1/0_510";
}
object overhead_line
{
	name "OL_LK_CONFIG_2_13_18";
	phases "ABC";
	nominal_voltage "${GLM_NOMINAL_VOLTAGE}";
	from "ND_13";
	to "ND_18";
	length "251.46 m";
	configuration "LC_336_400_336_400_336_400_4/0_500";
}
object overhead_line
{
	name "OL_LK_CONFIG_2_18_21";
	phases "ABC";
	nominal_voltage "${GLM_NOMINAL_VOLTAGE}";
	from "ND_18";
	to "ND_21";
	length "91.44 m";
	configuration "LC_336_400_336_400_336_400_4/0_500";
}
object overhead_line
{
	name "OL_LK_CONFIG_2_21_23";
	phases "ABC";
	nominal_voltage "${GLM_NOMINAL_VOLTAGE}";
	from "ND_21";
	to "ND_23";
	length "76.20 m";
	configuration "LC_336_400_336_400_336_400_4/0_500";
}
object overhead_line
{
	name "OL_LK_CONFIG_2_23_25";
	phases "ABC";
	nominal_voltage "${GLM_NOMINAL_VOLTAGE}";
	from "ND_23";
	to "ND_25";
	length "83.82 m";
	configuration "LC_336_400_336_400_336_400_4/0_500";
}
object overhead_line
{
	name "OL_LK_CONFIG_2_25_28";
	phases "ABC";
	nominal_voltage "${GLM_NOMINAL_VOLTAGE}";
	from "ND_25";
	to "ND_28";
	length "60.96 m";
	configuration "LC_336_400_336_400_336_400_4/0_500";
}
object overhead_line
{
	name "OL_LK_CONFIG_2_28_29";
	phases "ABC";
	nominal_voltage "${GLM_NOMINAL_VOLTAGE}";
	from "ND_28";
	to "ND_29";
	length "91.44 m";
	configuration "LC_336_400_336_400_336_400_4/0_500";
}
object overhead_line
{
	name "OL_LK_CONFIG_2_29_30";
	phases "ABC";
	nominal_voltage "${GLM_NOMINAL_VOLTAGE}";
	from "ND_29";
	to "ND_30";
	length "106.68 m";
	configuration "LC_336_400_336_400_336_400_4/0_500";
}
object overhead_line
{
	name "OL_LK_CONFIG_2_30_250";
	phases "ABC";
	nominal_voltage "${GLM_NOMINAL_VOLTAGE}";
	from "ND_30";
	to "ND_250";
	length "60.96 m";
	configuration "LC_336_400_336_400_336_400_4/0_500";
}
object overhead_line
{
	name "OL_LK_CONFIG_3_100_450";
	phases "ABC";
	nominal_voltage "${GLM_NOMINAL_VOLTAGE}";
	from "ND_100";
	to "ND_450";
	length "243.84 m";
	configuration "LC_336_400_336_400_336_400_4/0_500";
}
object overhead_line
{
	name "OL_LK_CONFIG_3_101_105";
	phases "ABC";
	nominal_voltage "${GLM_NOMINAL_VOLTAGE}";
	from "ND_101";
	to "ND_105";
	length "83.82 m";
	configuration "LC_336_400_336_400_336_400_4/0_500";
}
object overhead_line
{
	name "OL_LK_CONFIG_3_105_108";
	phases "ABC";
	nominal_voltage "${GLM_NOMINAL_VOLTAGE}";
	from "ND_105";
	to "ND_108";
	length "99.06 m";
	configuration "LC_336_400_336_400_336_400_4/0_500";
}
object overhead_line
{
	name "OL_LK_CONFIG_3_108_300";
	phases "ABC";
	nominal_voltage "${GLM_NOMINAL_VOLTAGE}";
	from "ND_108";
	to "ND_300";
	length "304.80 m";
	configuration "LC_336_400_336_400_336_400_4/0_500";
}
object overhead_line
{
	name "OL_LK_CONFIG_3_197_101";
	phases "ABC";
	nominal_voltage "${GLM_NOMINAL_VOLTAGE}";
	from "ND_197";
	to "ND_101";
	length "76.20 m";
	configuration "LC_336_400_336_400_336_400_4/0_500";
}
object overhead_line
{
	name "OL_LK_CONFIG_3_54_57";
	phases "ABC";
	nominal_voltage "${GLM_NOMINAL_VOLTAGE}";
	from "ND_54";
	to "ND_57";
	length "106.68 m";
	configuration "LC_336_400_336_400_336_400_4/0_500";
}
object overhead_line
{
	name "OL_LK_CONFIG_3_57_60";
	phases "ABC";
	nominal_voltage "${GLM_NOMINAL_VOLTAGE}";
	from "ND_57";
	to "ND_60";
	length "228.60 m";
	configuration "LC_336_400_336_400_336_400_4/0_500";
}
object overhead_line
{
	name "OL_LK_CONFIG_3_67_72";
	phases "ABC";
	nominal_voltage "${GLM_NOMINAL_VOLTAGE}";
	from "ND_67";
	to "ND_72";
	length "83.82 m";
	configuration "LC_336_400_336_400_336_400_4/0_500";
}
object overhead_line
{
	name "OL_LK_CONFIG_3_67_97";
	phases "ABC";
	nominal_voltage "${GLM_NOMINAL_VOLTAGE}";
	from "ND_67";
	to "ND_97";
	length "76.20 m";
	configuration "LC_336_400_336_400_336_400_4/0_500";
}
object overhead_line
{
	name "OL_LK_CONFIG_3_72_76";
	phases "ABC";
	nominal_voltage "${GLM_NOMINAL_VOLTAGE}";
	from "ND_72";
	to "ND_76";
	length "60.96 m";