
Version,
  9.4;                                    !- Version Identifier

Timestep,
  1;                                      !- Number of Timesteps per Hour

LifeCycleCost:Parameters,
  Life Cycle Cost Parameters,             !- Name
  EndOfYear,                              !- Discounting Convention
  ConstantDollar,                         !- Inflation Approach
  0.03,                                   !- Real Discount Rate
  ,                                       !- Nominal Discount Rate
  ,                                       !- Inflation
  ,                                       !- Base Date Month
  2011,                                   !- Base Date Year
  ,                                       !- Service Date Month
  2011,                                   !- Service Date Year
  25,                                     !- Length of Study Period in Years
  ,                                       !- Tax rate
  None;                                   !- Depreciation Method

LifeCycleCost:UsePriceEscalation,
  U.S. Avg  Commercial-Electricity,       !- Name
  Electricity,                            !- Resource
  2011,                                   !- Escalation Start Year
  January,                                !- Escalation Start Month
  0.9838,                                 !- Year Escalation 1
  0.9730,                                 !- Year Escalation 2
  0.9632,                                 !- Year Escalation 3
  0.9611,                                 !- Year Escalation 4
  0.9571,                                 !- Year Escalation 5
  0.9553,                                 !- Year Escalation 6
  0.9539,                                 !- Year Escalation 7
  0.9521,                                 !- Year Escalation 8
  0.9546,                                 !- Year Escalation 9
  0.9550,                                 !- Year Escalation 10
  0.9553,                                 !- Year Escalation 11
  0.9564,                                 !- Year Escalation 12
  0.9575,                                 !- Year Escalation 13
  0.9596,                                 !- Year Escalation 14
  0.9618,                                 !- Year Escalation 15
  0.9614,                                 !- Year Escalation 16
  0.9618,                                 !- Year Escalation 17
  0.9618,                                 !- Year Escalation 18
  0.9593,                                 !- Year Escalation 19
  0.9589,                                 !- Year Escalation 20
  0.9607,                                 !- Year Escalation 21
  0.9625,                                 !- Year Escalation 22
  0.9650,                                 !- Year Escalation 23
  0.9708,                                 !- Year Escalation 24
  0.9751,                                 !- Year Escalation 25
  0.9762,                                 !- Year Escalation 26
  0.9766,                                 !- Year Escalation 27
  0.9766,                                 !- Year Escalation 28
  0.9769,                                 !- Year Escalation 29
  0.9773;                                 !- Year Escalation 30

LifeCycleCost:UsePriceEscalation,
  U.S. Avg  Commercial-Distillate Oil,    !- Name
  FuelOilNo1,                             !- Resource
  2011,                                   !- Escalation Start Year
  January,                                !- Escalation Start Month
  0.9714,                                 !- Year Escalation 1
  0.9730,                                 !- Year Escalation 2
  0.9942,                                 !- Year Escalation 3
  1.0164,                                 !- Year Escalation 4
  1.0541,                                 !- Year Escalation 5
  1.0928,                                 !- Year Escalation 6
  1.1267,                                 !- Year Escalation 7
  1.1580,                                 !- Year Escalation 8
  1.1792,                                 !- Year Escalation 9
  1.1967,                                 !- Year Escalation 10
  1.2200,                                 !- Year Escalation 11
  1.2333,                                 !- Year Escalation 12
  1.2566,                                 !- Year Escalation 13
  1.2709,                                 !- Year Escalation 14
  1.2826,                                 !- Year Escalation 15
  1.2985,                                 !- Year Escalation 16
  1.3102,                                 !- Year Escalation 17
  1.3250,                                 !- Year Escalation 18
  1.3261,                                 !- Year Escalation 19
  1.3282,                                 !- Year Escalation 20
  1.3324,                                 !- Year Escalation 21
  1.3356,                                 !- Year Escalation 22
  1.3431,                                 !- Year Escalation 23
  1.3510,                                 !- Year Escalation 24
  1.3568,                                 !- Year Escalation 25
  1.3606,                                 !- Year Escalation 26
  1.3637,                                 !- Year Escalation 27
  1.3674,                                 !- Year Escalation 28
  1.3706,                                 !- Year Escalation 29
  1.3743;                                 !- Year Escalation 30

LifeCycleCost:UsePriceEscalation,
  U.S. Avg  Commercial-Residual Oil,      !- Name
  FuelOilNo2,                             !- Resource
  2011,                                   !- Escalation Start Year
  January,                                !- Escalation Start Month
  0.8469,                                 !- Year Escalation 1
  0.8257,                                 !- Year Escalation 2
  0.8681,                                 !- Year Escalation 3
  0.8988,                                 !- Year Escalation 4
  0.9289,                                 !- Year Escalation 5
  0.9604,                                 !- Year Escalation 6
  0.9897,                                 !- Year Escalation 7
  1.0075,                                 !- Year Escalation 8
  1.0314,                                 !- Year Escalation 9
  1.0554,                                 !- Year Escalation 10
  1.0861,                                 !- Year Escalation 11
  1.1278,                                 !- Year Escalation 12
  1.1497,                                 !- Year Escalation 13
  1.1620,                                 !- Year Escalation 14
  1.1743,                                 !- Year Escalation 15
  1.1852,                                 !- Year Escalation 16
  1.1948,                                 !- Year Escalation 17
  1.2037,                                 !- Year Escalation 18
  1.2071,                                 !- Year Escalation 19
  1.2119,                                 !- Year Escalation 20
  1.2139,                                 !- Year Escalation 21
  1.2194,                                 !- Year Escalation 22
  1.2276,                                 !- Year Escalation 23
  1.2365,                                 !- Year Escalation 24
  1.2420,                                 !- Year Escalation 25
  1.2461,                                 !- Year Escalation 26
  1.2509,                                 !- Year Escalation 27
  1.2550,                                 !- Year Escalation 28
  1.2591,                                 !- Year Escalation 29
  1.2638;                                 !- Year Escalation 30

LifeCycleCost:UsePriceEscalation,
  U.S. Avg  Commercial-Natural gas,       !- Name
  NaturalGas,                             !- Resource
  2011,                                   !- Escalation Start Year
  January,                                !- Escalation Start Month
  0.9823,                                 !- Year Escalation 1
  0.9557,                                 !- Year Escalation 2
  0.9279,                                 !- Year Escalation 3
  0.9257,                                 !- Year Escalation 4
  0.9346,                                 !- Year Escalation 5
  0.9412,                                 !- Year Escalation 6
  0.9512,                                 !- Year Escalation 7
  0.9645,                                 !- Year Escalation 8
  0.9856,                                 !- Year Escalation 9
  1.0067,                                 !- Year Escalation 10
  1.0222,                                 !- Year Escalation 11
  1.0410,                                 !- Year Escalation 12
  1.0610,                                 !- Year Escalation 13
  1.0787,                                 !- Year Escalation 14
  1.0942,                                 !- Year Escalation 15
  1.1098,                                 !- Year Escalation 16
  1.1220,                                 !- Year Escalation 17
  1.1308,                                 !- Year Escalation 18
  1.1386,                                 !- Year Escalation 19
  1.1486,                                 !- Year Escalation 20
  1.1619,                                 !- Year Escalation 21
  1.1763,                                 !- Year Escalation 22
  1.1918,                                 !- Year Escalation 23
  1.2118,                                 !- Year Escalation 24
  1.2284,                                 !- Year Escalation 25
  1.2439,                                 !- Year Escalation 26
  1.2605,                                 !- Year Escalation 27
  1.2772,                                 !- Year Escalation 28
  1.2938,                                 !- Year Escalation 29
  1.3115;                                 !- Year Escalation 30

LifeCycleCost:UsePriceEscalation,
  U.S. Avg  Commercial-Coal,              !- Name
  Coal,                                   !- Resource
  2011,                                   !- Escalation Start Year
  January,                                !- Escalation Start Month
  0.9970,                                 !- Year Escalation 1
  1.0089,                                 !- Year Escalation 2
  1.0089,                                 !- Year Escalation 3
  0.9941,                                 !- Year Escalation 4
  0.9941,                                 !- Year Escalation 5
  1.0000,                                 !- Year Escalation 6
  1.0030,                                 !- Year Escalation 7
  1.0059,                                 !- Year Escalation 8
  1.0089,                                 !- Year Escalation 9
  1.0119,                                 !- Year Escalation 10
  1.0148,                                 !- Year Escalation 11
  1.0178,                                 !- Year Escalation 12
  1.0208,                                 !- Year Escalation 13
  1.0267,                                 !- Year Escalation 14
  1.0297,                                 !- Year Escalation 15
  1.0356,                                 !- Year Escalation 16
  1.0415,                                 !- Year Escalation 17
  1.0534,                                 !- Year Escalation 18
  1.0564,                                 !- Year Escalation 19
  1.0593,                                 !- Year Escalation 20
  1.0653,                                 !- Year Escalation 21
  1.0712,                                 !- Year Escalation 22
  1.0742,                                 !- Year Escalation 23
  1.0801,                                 !- Year Escalation 24
  1.0831,                                 !- Year Escalation 25
  1.0831,                                 !- Year Escalation 26
  1.0861,                                 !- Year Escalation 27
  1.0890,                                 !- Year Escalation 28
  1.0920,                                 !- Year Escalation 29
  1.0950;                                 !- Year Escalation 30

Building,
  -MidriseApartment-ASHRAE 169-2006-3C created: 2021-02-17 08:39:53 +0000, !- Name
  ,                                       !- North Axis {deg}
  City,                                   !- Terrain
  ,                                       !- Loads Convergence Tolerance Value {W}
  ,                                       !- Temperature Convergence Tolerance Value {deltaC}
  ,                                       !- Solar Distribution
  ,                                       !- Maximum Number of Warmup Days
  ;                                       !- Minimum Number of Warmup Days

Zone,
  Space 0 ZN,                             !- Name
  0,                                      !- Direction of Relative North {deg}
  0,                                      !- X Origin {m}
  0,                                      !- Y Origin {m}
  0,                                      !- Z Origin {m}
  ,                                       !- Type
  1,                                      !- Multiplier
  ,                                       !- Ceiling Height {m}
  ,                                       !- Volume {m3}
  ,                                       !- Floor Area {m2}
  ,                                       !- Zone Inside Convection Algorithm
  ,                                       !- Zone Outside Convection Algorithm
  Yes;                                    !- Part of Total Floor Area

BuildingSurface:Detailed,
  Surface 1,                              !- Name
  Floor,                                  !- Surface Type
  Foundation F 093 Perim 4589 Area 12749, !- Construction Name
  Space 0 ZN,                             !- Zone Name
  GroundFCfactorMethod,                   !- Outside Boundary Condition
  ,                                       !- Outside Boundary Condition Object
  NoSun,                                  !- Sun Exposure
  NoWind,                                 !- Wind Exposure
  ,                                       !- View Factor to Ground
  ,                                       !- Number of Vertices
  5.5753236572404, -6.02843603467212, 0,  !- X,Y,Z Vertex 1 {m}
  -3.74015205404304, -7.36022516937509, 0, !- X,Y,Z Vertex 2 {m}
  -5.60323841345117, 6.06863950064161, 0, !- X,Y,Z Vertex 3 {m}
  3.80094141633592, 7.28944429004901, 0;  !- X,Y,Z Vertex 4 {m}

BuildingSurface:Detailed,
  Surface 2,                              !- Name
  Wall,                                   !- Surface Type
  Typical Insulated Steel Framed Exterior Wall R-15.63, !- Construction Name
  Space 0 ZN,                             !- Zone Name
  Outdoors,                               !- Outside Boundary Condition
  ,                                       !- Outside Boundary Condition Object
  SunExposed,                             !- Sun Exposure
  WindExposed,                            !- Wind Exposure
  ,                                       !- View Factor to Ground
  ,                                       !- Number of Vertices
  -3.74015205404304, -7.36022516937509, 2.74323335771763, !- X,Y,Z Vertex 1 {m}
  -3.74015205404304, -7.36022516937509, 0, !- X,Y,Z Vertex 2 {m}
  5.5753236572404, -6.02843603467212, 0,  !- X,Y,Z Vertex 3 {m}
  5.5753236572404, -6.02843603467212, 2.74323335771763; !- X,Y,Z Vertex 4 {m}

FenestrationSurface:Detailed,
  Sub Surface 1,                          !- Name
  Window,                                 !- Surface Type
  U 0.55 SHGC 0.25,                       !- Construction Name
  Surface 2,                              !- Building Surface Name
  ,                                       !- Outside Boundary Condition Object
  ,                                       !- View Factor to Ground
  ,                                       !- Frame and Divider Name
  ,                                       !- Multiplier
  ,                                       !- Number of Vertices
  -3.71500771753691, -7.35663040350418, 1.14813719347599, !- X,Y,Z Vertex 1 {m}
  -3.71500771753691, -7.35663040350418, 0.762, !- X,Y,Z Vertex 2 {m}
  5.55017932073427, -6.03203080054303, 0.762, !- X,Y,Z Vertex 3 {m}
  5.55017932073427, -6.03203080054303, 1.14813719347599; !- X,Y,Z Vertex 4 {m}

BuildingSurface:Detailed,
  Surface 3,                              !- Name
  Wall,                                   !- Surface Type
  Typical Insulated Steel Framed Exterior Wall R-15.63, !- Construction Name
  Space 0 ZN,                             !- Zone Name
  Outdoors,                               !- Outside Boundary Condition
  ,                                       !- Outside Boundary Condition Object
  SunExposed,                             !- Sun Exposure
  WindExposed,                            !- Wind Exposure
  ,                                       !- View Factor to Ground
  ,                                       !- Number of Vertices
  -5.60323841345117, 6.06863950064161, 2.74323335771763, !- X,Y,Z Vertex 1 {m}
  -5.60323841345117, 6.06863950064161, 0, !- X,Y,Z Vertex 2 {m}
  -3.74015205404304, -7.36022516937509, 0, !- X,Y,Z Vertex 3 {m}
  -3.74015205404304, -7.36022516937509, 2.74323335771763; !- X,Y,Z Vertex 4 {m}

FenestrationSurface:Detailed,
  Sub Surface 2,                          !- Name
  Window,                                 !- Surface Type
  U 0.55 SHGC 0.25,                       !- Construction Name
  Surface 3,                              !- Building Surface Name
  ,                                       !- Outside Boundary Condition Object
  ,                                       !- View Factor to Ground
  ,                                       !- Frame and Divider Name
  ,                                       !- Multiplier
  ,                                       !- Number of Vertices
  -5.59974791495774, 6.04348047800027, 1.14749713039339, !- X,Y,Z Vertex 1 {m}
  -5.59974791495774, 6.04348047800027, 0.762, !- X,Y,Z Vertex 2 {m}
  -3.74364255253647, -7.33506614673375, 0.762, !- X,Y,Z Vertex 3 {m}
  -3.74364255253647, -7.33506614673375, 1.14749713039339; !- X,Y,Z Vertex 4 {m}

BuildingSurface:Detailed,
  Surface 4,                              !- Name
  Wall,                                   !- Surface Type
  Typical Insulated Steel Framed Exterior Wall R-15.63, !- Construction Name
  Space 0 ZN,                             !- Zone Name
  Outdoors,                               !- Outside Boundary Condition
  ,                                       !- Outside Boundary Condition Object
  SunExposed,                             !- Sun Exposure
  WindExposed,                            !- Wind Exposure
  ,                                       !- View Factor to Ground
  ,                                       !- Number of Vertices
  3.80094141633592, 7.28944429004901, 2.74323335771763, !- X,Y,Z Vertex 1 {m}
  3.80094141633592, 7.28944429004901, 0,  !- X,Y,Z Vertex 2 {m}
  -5.60323841345117, 6.06863950064161, 0, !- X,Y,Z Vertex 3 {m}
  -5.60323841345117, 6.06863950064161, 2.74323335771763; !- X,Y,Z Vertex 4 {m}

FenestrationSurface:Detailed,
  Sub Surface 3,                          !- Name
  Window,                                 !- Surface Type
  U 0.55 SHGC 0.25,                       !- Construction Name
  Surface 4,                              !- Building Surface Name
  ,                                       !- Outside Boundary Condition Object
  ,                                       !- View Factor to Ground
  ,                                       !- Frame and Divider Name
  ,                                       !- Multiplier
  ,                                       !- Number of Vertices
  3.77575276875805, 7.28617442259025, 1.14812108393081, !- X,Y,Z Vertex 1 {m}
  3.77575276875805, 7.28617442259025, 0.762, !- X,Y,Z Vertex 2 {m}
  -5.5780497658733, 6.07190936810037, 0.762, !- X,Y,Z Vertex 3 {m}
  -5.5780497658733, 6.07190936810037, 1.14812108393081; !- X,Y,Z Vertex 4 {m}

BuildingSurface:Detailed,
  Surface 5,                              !- Name
  Wall,                                   !- Surface Type
  Typical Insulated Steel Framed Exterior Wall R-15.63, !- Construction Name
  Space 0 ZN,                             !- Zone Name
  Outdoors,                               !- Outside Boundary Condition
  ,                                       !- Outside Boundary Condition Object
  SunExposed,                             !- Sun Exposure
  WindExposed,                            !- Wind Exposure
  ,                                       !- View Factor to Ground
  ,                                       !- Number of Vertices
  5.5753236572404, -6.02843603467212, 2.74323335771763, !- X,Y,Z Vertex 1 {m}
  5.5753236572404, -6.02843603467212, 0,  !- X,Y,Z Vertex 2 {m}
  3.80094141633592, 7.28944429004901, 0,  !- X,Y,Z Vertex 3 {m}
  3.80094141633592, 7.28944429004901, 2.74323335771763; !- X,Y,Z Vertex 4 {m}

FenestrationSurface:Detailed,
  Sub Surface 4,                          !- Name
  Window,                                 !- Surface Type
  U 0.55 SHGC 0.25,                       !- Construction Name
  Surface 5,                              !- Building Surface Name
  ,                                       !- Outside Boundary Condition Object
  ,                                       !- View Factor to Ground
  ,                                       !- Frame and Divider Name
  ,                                       !- Multiplier
  ,                                       !- Number of Vertices
  5.57196917875838, -6.00325851545132, 1.14751028832865, !- X,Y,Z Vertex 1 {m}
  5.57196917875838, -6.00325851545132, 0.762, !- X,Y,Z Vertex 2 {m}
  3.80429589481794, 7.26426677082821, 0.762, !- X,Y,Z Vertex 3 {m}
  3.80429589481794, 7.26426677082821, 1.14751028832865; !- X,Y,Z Vertex 4 {m}

BuildingSurface:Detailed,
  Surface 6,                              !- Name
  Roof,                                   !- Surface Type
  Typical IEAD Roof - Highly Reflective R-25.64, !- Construction Name
  Space 0 ZN,                             !- Zone Name
  Outdoors,                               !- Outside Boundary Condition
  ,                                       !- Outside Boundary Condition Object
  SunExposed,                             !- Sun Exposure
  WindExposed,                            !- Wind Exposure
  ,                                       !- View Factor to Ground
  ,                                       !- Number of Vertices
  3.80094141633592, 7.28944429004901, 2.74323335771763, !- X,Y,Z Vertex 1 {m}
  -5.60323841345117, 6.06863950064161, 2.74323335771763, !- X,Y,Z Vertex 2 {m}
  -3.74015205404304, -7.36022516937509, 2.74323335771763, !- X,Y,Z Vertex 3 {m}
  5.5753236572404, -6.02843603467212, 2.74323335771763; !- X,Y,Z Vertex 4 {m}

InternalMass,
  Space 0 Mass,                           !- Name
  InteriorFurnishings,                    !- Construction Name
  Space 0 ZN,                             !- Zone or ZoneList Name
  254.987416697322;                       !- Surface Area {m2}

ZoneInfiltration:DesignFlowRate,
  Space 0 Infiltration,                   !- Name
  Space 0 ZN,                             !- Zone or ZoneList Name
  ApartmentMidRise INF_APT_SCH,           !- Schedule Name
  Flow/ExteriorArea,                      !- Design Flow Rate Calculation Method
  ,                                       !- Design Flow Rate {m3/s}
  ,                                       !- Flow per Zone Floor Area {m3/s-m2}
  0.0002829694403,                        !- Flow per Exterior Surface Area {m3/s-m2}
  ,                                       !- Air Changes per Hour {1/hr}
  0,                                      !- Constant Term Coefficient
  0,                                      !- Temperature Term Coefficient
  0.224,                                  !- Velocity Term Coefficient
  0;                                      !- Velocity Squared Term Coefficient

ZoneControl:Thermostat,
  Space 0 ZN Thermostat,                  !- Name
  Space 0 ZN,                             !- Zone or ZoneList Name
  Space 0 ZN Thermostat Schedule,         !- Control Type Schedule Name
  ThermostatSetpoint:DualSetpoint,        !- Control 1 Object Type
  Space Type 1 Thermostat 1,              !- Control 1 Name
  ,                                       !- Control 2 Object Type
  ,                                       !- Control 2 Name
  ,                                       !- Control 3 Object Type
  ,                                       !- Control 3 Name
  ,                                       !- Control 4 Object Type
  ,                                       !- Control 4 Name
  0;                                      !- Temperature Difference Between Cutout And Setpoint {deltaC}

Schedule:Compact,
  Space 0 ZN Thermostat Schedule,         !- Name
  Space 0 ZN Thermostat Schedule Type Limits, !- Schedule Type Limits Name
  Through: 12/31,                         !- Field 1
  For: AllDays,                           !- Field 2
  Until: 24:00,                           !- Field 3
  4;                                      !- Field 4

ScheduleTypeLimits,
  Space 0 ZN Thermostat Schedule Type Limits, !- Name
  0,                                      !- Lower Limit Value {BasedOnField A3}
  4,                                      !- Upper Limit Value {BasedOnField A3}
  DISCRETE;                               !- Numeric Type

ThermostatSetpoint:DualSetpoint,
  Space Type 1 Thermostat 1,              !- Name
  ApartmentMidRise HTGSETP_APT_SCH,       !- Heating Setpoint Temperature Schedule Name
  ApartmentMidRise CLGSETP_APT_SCH;       !- Cooling Setpoint Temperature Schedule Name

ScheduleTypeLimits,
  Temperature,                            !- Name
  ,                                       !- Lower Limit Value {BasedOnField A3}
  ,                                       !- Upper Limit Value {BasedOnField A3}
  Continuous,                             !- Numeric Type
  temperature;                            !- Unit Type

Schedule:Day:Interval,
  ApartmentMidRise HTGSETP_APT_SCH Default, !- Name
  Temperature,                            !- Schedule Type Limits Name
  No,                                     !- Interpolate to Timestep
  24:00,                                  !- Time 1 {hh:mm}
  21.7;                                   !- Value Until Time 1

Schedule:Week:Daily,
  ApartmentMidRise HTGSETP_APT_SCH Week Rule - Jan1-Dec31, !- Name
  ApartmentMidRise HTGSETP_APT_SCH Default, !- Sunday Schedule:Day Name
  ApartmentMidRise HTGSETP_APT_SCH Default, !- Monday Schedule:Day Name
  ApartmentMidRise HTGSETP_APT_SCH Default, !- Tuesday Schedule:Day Name
  ApartmentMidRise HTGSETP_APT_SCH Default, !- Wednesday Schedule:Day Name
  ApartmentMidRise HTGSETP_APT_SCH Default, !- Thursday Schedule:Day Name
  ApartmentMidRise HTGSETP_APT_SCH Default, !- Friday Schedule:Day Name
  ApartmentMidRise HTGSETP_APT_SCH Default, !- Saturday Schedule:Day Name
  ApartmentMidRise HTGSETP_APT_SCH Default, !- Holiday Schedule:Day Name
  ApartmentMidRise HTGSETP_APT_SCH Summer Design Day, !- SummerDesignDay Schedule:Day Name
  ApartmentMidRise HTGSETP_APT_SCH Winter Design Day, !- WinterDesignDay Schedule:Day Name
  ApartmentMidRise HTGSETP_APT_SCH Default, !- CustomDay1 Schedule:Day Name
  ApartmentMidRise HTGSETP_APT_SCH Default; !- CustomDay2 Schedule:Day Name

Schedule:Year,
  ApartmentMidRise HTGSETP_APT_SCH,       !- Name
  Temperature,                            !- Schedule Type Limits Name
  ApartmentMidRise HTGSETP_APT_SCH Week Rule - Jan1-Dec31, !- Schedule:Week Name 1
  1,                                      !- Start Month 1
  1,                                      !- Start Day 1
  12,                                     !- End Month 1
  31;                                     !- End Day 1

Schedule:Day:Interval,
  ApartmentMidRise HTGSETP_APT_SCH Summer Design Day, !- Name
  Temperature,                            !- Schedule Type Limits Name
  No,                                     !- Interpolate to Timestep
  24:00,                                  !- Time 1 {hh:mm}
  21.7;                                   !- Value Until Time 1

Schedule:Day:Interval,
  ApartmentMidRise HTGSETP_APT_SCH Winter Design Day, !- Name
  Temperature,                            !- Schedule Type Limits Name
  No,                                     !- Interpolate to Timestep
  24:00,                                  !- Time 1 {hh:mm}
  21.7;                                   !- Value Until Time 1

Schedule:Day:Interval,
  ApartmentMidRise CLGSETP_APT_SCH Default, !- Name
  Temperature,                            !- Schedule Type Limits Name
  No,                                     !- Interpolate to Timestep
  24:00,                                  !- Time 1 {hh:mm}
  24.4;                                   !- Value Until Time 1

Schedule:Week:Daily,
  ApartmentMidRise CLGSETP_APT_SCH Week Rule - Jan1-Dec31, !- Name
  ApartmentMidRise CLGSETP_APT_SCH Default, !- Sunday Schedule:Day Name
  ApartmentMidRise CLGSETP_APT_SCH Default, !- Monday Schedule:Day Name
  ApartmentMidRise CLGSETP_APT_SCH Default, !- Tuesday Schedule:Day Name
  ApartmentMidRise CLGSETP_APT_SCH Default, !- Wednesday Schedule:Day Name
  ApartmentMidRise CLGSETP_APT_SCH Default, !- Thursday Schedule:Day Name
  ApartmentMidRise CLGSETP_APT_SCH Default, !- Friday Schedule:Day Name
  ApartmentMidRise CLGSETP_APT_SCH Default, !- Saturday Schedule:Day Name
  ApartmentMidRise CLGSETP_APT_SCH Default, !- Holiday Schedule:Day Name
  ApartmentMidRise CLGSETP_APT_SCH Summer Design Day, !- SummerDesignDay Schedule:Day Name
  ApartmentMidRise CLGSETP_APT_SCH Winter Design Day, !- WinterDesignDay Schedule:Day Name
  ApartmentMidRise CLGSETP_APT_SCH Default, !- CustomDay1 Schedule:Day Name
  ApartmentMidRise CLGSETP_APT_SCH Default; !- CustomDay2 Schedule:Day Name

Schedule:Year,
  ApartmentMidRise CLGSETP_APT_SCH,       !- Name
  Temperature,                            !- Schedule Type Limits Name
  ApartmentMidRise CLGSETP_APT_SCH Week Rule - Jan1-Dec31, !- Schedule:Week Name 1
  1,                                      !- Start Month 1